# generated using pymatgen
data_Sr2TmRuO6
_symmetry_space_group_name_H-M   'P 1'
_cell_length_a   5.81811744
_cell_length_b   5.79596901
_cell_length_c   8.20363647
_cell_angle_alpha   90.24481607
_cell_angle_beta   90.00000000
_cell_angle_gamma   90.00000000
_symmetry_Int_Tables_number   1
_chemical_formula_structural   Sr2TmRuO6
_chemical_formula_sum   'Sr4 Tm2 Ru2 O12'
_cell_volume   276.63745527
_cell_formula_units_Z   2
loop_
 _symmetry_equiv_pos_site_id
 _symmetry_equiv_pos_as_xyz
  1  'x, y, z'
loop_
 _atom_site_type_symbol
 _atom_site_label
 _atom_site_symmetry_multiplicity
 _atom_site_fract_x
 _atom_site_fract_y
 _atom_site_fract_z
 _atom_site_occupancy
  Sr  Sr0  1  0.97074855  0.99426510  0.75093316  1
  Sr  Sr1  1  0.47074855  0.50573490  0.74906684  1
  Sr  Sr2  1  0.02925145  0.00573490  0.24906684  1
  Sr  Sr3  1  0.52925145  0.49426510  0.25093316  1
  Tm  Tm4  1  0.00000000  0.50000000  0.00000000  1
  Tm  Tm5  1  0.50000000  0.00000000  0.50000000  1
  Ru  Ru6  1  0.00000000  0.50000000  0.50000000  1
  Ru  Ru7  1  0.50000000  0.00000000  0.00000000  1
  O  O8  1  0.70419889  0.73039696  0.96469455  1
  O  O9  1  0.20419889  0.76960304  0.53530545  1
  O  O10  1  0.29580111  0.26960304  0.03530545  1
  O  O11  1  0.79580111  0.23039696  0.46469455  1
  O  O12  1  0.22839600  0.79812070  0.96419854  1
  O  O13  1  0.72839600  0.70187930  0.53580146  1
  O  O14  1  0.77160400  0.20187930  0.03580146  1
  O  O15  1  0.27160400  0.29812070  0.46419854  1
  O  O16  1  0.51463706  0.06754681  0.76342973  1
  O  O17  1  0.01463706  0.43245319  0.73657027  1
  O  O18  1  0.48536294  0.93245319  0.23657027  1
  O  O19  1  0.98536294  0.56754681  0.26342973  1
