# generated using pymatgen
data_Er2Ni12As7
_symmetry_space_group_name_H-M   'P 1'
_cell_length_a   9.33925910
_cell_length_b   9.33925950
_cell_length_c   3.81687008
_cell_angle_alpha   90.00000000
_cell_angle_beta   90.00000000
_cell_angle_gamma   119.99999858
_symmetry_Int_Tables_number   1
_chemical_formula_structural   Er2Ni12As7
_chemical_formula_sum   'Er2 Ni12 As7'
_cell_volume   288.31210869
_cell_formula_units_Z   1
loop_
 _symmetry_equiv_pos_site_id
 _symmetry_equiv_pos_as_xyz
  1  'x, y, z'
loop_
 _atom_site_type_symbol
 _atom_site_label
 _atom_site_symmetry_multiplicity
 _atom_site_fract_x
 _atom_site_fract_y
 _atom_site_fract_z
 _atom_site_occupancy
  Er  Er0  1  0.66666700  0.33333300  0.50000000  1
  Er  Er1  1  0.33333300  0.66666700  0.00000000  1
  Ni  Ni2  1  0.43799523  0.05594562  0.00000000  1
  Ni  Ni3  1  0.61795040  0.56200477  0.00000000  1
  Ni  Ni4  1  0.94405438  0.38204960  0.00000000  1
  Ni  Ni5  1  0.15312446  0.28038523  0.00000000  1
  Ni  Ni6  1  0.12726076  0.84687554  0.00000000  1
  Ni  Ni7  1  0.71961477  0.87273924  0.00000000  1
  Ni  Ni8  1  0.37925540  0.42668016  0.50000000  1
  Ni  Ni9  1  0.04742476  0.62074460  0.50000000  1
  Ni  Ni10  1  0.57331984  0.95257524  0.50000000  1
  Ni  Ni11  1  0.21178641  0.09563272  0.50000000  1
  Ni  Ni12  1  0.88384632  0.78821359  0.50000000  1
  Ni  Ni13  1  0.90436728  0.11615368  0.50000000  1
  As  As14  1  0.00000000  0.00000000  0.00000000  1
  As  As15  1  0.40520196  0.28631554  0.00000000  1
  As  As16  1  0.88111358  0.59479804  0.00000000  1
  As  As17  1  0.71368446  0.11888642  0.00000000  1
  As  As18  1  0.11136405  0.40776584  0.50000000  1
  As  As19  1  0.29640179  0.88863595  0.50000000  1
  As  As20  1  0.59223416  0.70359821  0.50000000  1
