# generated using pymatgen
data_EuDyCuS3
_symmetry_space_group_name_H-M   'P 1'
_cell_length_a   3.90390094
_cell_length_b   10.22807065
_cell_length_c   12.80250241
_cell_angle_alpha   90.00000000
_cell_angle_beta   90.00000000
_cell_angle_gamma   90.00000000
_symmetry_Int_Tables_number   1
_chemical_formula_structural   EuDyCuS3
_chemical_formula_sum   'Eu4 Dy4 Cu4 S12'
_cell_volume   511.19591487
_cell_formula_units_Z   4
loop_
 _symmetry_equiv_pos_site_id
 _symmetry_equiv_pos_as_xyz
  1  'x, y, z'
loop_
 _atom_site_type_symbol
 _atom_site_label
 _atom_site_symmetry_multiplicity
 _atom_site_fract_x
 _atom_site_fract_y
 _atom_site_fract_z
 _atom_site_occupancy
  Eu  Eu0  1  0.75000000  0.22723546  0.99957188  1
  Eu  Eu1  1  0.25000000  0.77276454  0.00042812  1
  Eu  Eu2  1  0.75000000  0.72723546  0.50042812  1
  Eu  Eu3  1  0.25000000  0.27276454  0.49957188  1
  Dy  Dy4  1  0.75000000  0.98566957  0.25710803  1
  Dy  Dy5  1  0.25000000  0.01433043  0.74289197  1
  Dy  Dy6  1  0.75000000  0.48566957  0.24289197  1
  Dy  Dy7  1  0.25000000  0.51433043  0.75710803  1
  Cu  Cu8  1  0.75000000  0.76293564  0.77653121  1
  Cu  Cu9  1  0.25000000  0.23706436  0.22346879  1
  Cu  Cu10  1  0.75000000  0.26293564  0.72346879  1
  Cu  Cu11  1  0.25000000  0.73706436  0.27653121  1
  S  S12  1  0.75000000  0.94586325  0.88548851  1
  S  S13  1  0.25000000  0.05413675  0.11451149  1
  S  S14  1  0.75000000  0.44586325  0.61451149  1
  S  S15  1  0.25000000  0.55413675  0.38548851  1
  S  S16  1  0.75000000  0.58944203  0.89338505  1
  S  S17  1  0.25000000  0.41055797  0.10661495  1
  S  S18  1  0.75000000  0.08944203  0.60661495  1
  S  S19  1  0.25000000  0.91055797  0.39338505  1
  S  S20  1  0.75000000  0.73938681  0.17067620  1
  S  S21  1  0.25000000  0.26061319  0.82932380  1
  S  S22  1  0.75000000  0.23938681  0.32932380  1
  S  S23  1  0.25000000  0.76061319  0.67067620  1
