# generated using pymatgen
data_Gd2SiO5
_symmetry_space_group_name_H-M   'P 1'
_cell_length_a   6.78847120
_cell_length_b   7.12305814
_cell_length_c   9.21381422
_cell_angle_alpha   90.00000000
_cell_angle_beta   107.50491001
_cell_angle_gamma   90.00000000
_symmetry_Int_Tables_number   1
_chemical_formula_structural   Gd2SiO5
_chemical_formula_sum   'Gd8 Si4 O20'
_cell_volume   424.89897699
_cell_formula_units_Z   4
loop_
 _symmetry_equiv_pos_site_id
 _symmetry_equiv_pos_as_xyz
  1  'x, y, z'
loop_
 _atom_site_type_symbol
 _atom_site_label
 _atom_site_symmetry_multiplicity
 _atom_site_fract_x
 _atom_site_fract_y
 _atom_site_fract_z
 _atom_site_occupancy
  Gd  Gd0  1  0.41704496  0.14738573  0.11467360  1
  Gd  Gd1  1  0.76645513  0.37548019  0.47454723  1
  Gd  Gd2  1  0.26645513  0.12451981  0.47454723  1
  Gd  Gd3  1  0.08295504  0.64738573  0.88532640  1
  Gd  Gd4  1  0.73354487  0.87548019  0.52545277  1
  Gd  Gd5  1  0.23354487  0.62451981  0.52545277  1
  Gd  Gd6  1  0.58295504  0.85261427  0.88532640  1
  Gd  Gd7  1  0.91704496  0.35261427  0.11467360  1
  Si  Si8  1  0.96086274  0.91341758  0.20173438  1
  Si  Si9  1  0.03913726  0.08658242  0.79826562  1
  Si  Si10  1  0.53913726  0.41341758  0.79826562  1
  Si  Si11  1  0.46086274  0.58658242  0.20173438  1
  O  O12  1  0.35583877  0.57054779  0.79448458  1
  O  O13  1  0.74660915  0.54251033  0.86729789  1
  O  O14  1  0.54932954  0.23236593  0.90511959  1
  O  O15  1  0.00804768  0.86295997  0.38470248  1
  O  O16  1  0.44782477  0.87905680  0.61556181  1
  O  O17  1  0.75339085  0.04251033  0.13270211  1
  O  O18  1  0.99195232  0.13704003  0.61529752  1
  O  O19  1  0.25339085  0.45748967  0.13270211  1
  O  O20  1  0.94782477  0.62094320  0.61556181  1
  O  O21  1  0.49195232  0.36295997  0.61529752  1
  O  O22  1  0.14416123  0.07054779  0.20551542  1
  O  O23  1  0.45067046  0.76763407  0.09488041  1
  O  O24  1  0.24660915  0.95748967  0.86729789  1
  O  O25  1  0.05217523  0.37905680  0.38443819  1
  O  O26  1  0.95067046  0.73236593  0.09488041  1
  O  O27  1  0.04932954  0.26763407  0.90511959  1
  O  O28  1  0.64416123  0.42945221  0.20551542  1
  O  O29  1  0.50804768  0.63704003  0.38470248  1
  O  O30  1  0.55217523  0.12094320  0.38443819  1
  O  O31  1  0.85583877  0.92945221  0.79448458  1
