# generated using pymatgen
data_Ba3Lu4O9
_symmetry_space_group_name_H-M   'P 1'
_cell_length_a   9.05077684
_cell_length_b   9.05077688
_cell_length_c   9.05077645
_cell_angle_alpha   38.90131010
_cell_angle_beta   38.90130970
_cell_angle_gamma   38.90131117
_symmetry_Int_Tables_number   1
_chemical_formula_structural   Ba3Lu4O9
_chemical_formula_sum   'Ba3 Lu4 O9'
_cell_volume   262.89481489
_cell_formula_units_Z   1
loop_
 _symmetry_equiv_pos_site_id
 _symmetry_equiv_pos_as_xyz
  1  'x, y, z'
loop_
 _atom_site_type_symbol
 _atom_site_label
 _atom_site_symmetry_multiplicity
 _atom_site_fract_x
 _atom_site_fract_y
 _atom_site_fract_z
 _atom_site_occupancy
  Ba  Ba0  1  0.99732249  0.99732249  0.99732249  1
  Ba  Ba1  1  0.16133659  0.16133659  0.16133659  1
  Ba  Ba2  1  0.58148091  0.58148091  0.58148091  1
  Lu  Lu3  1  0.42215687  0.42215687  0.42215687  1
  Lu  Lu4  1  0.86069549  0.86069549  0.86069549  1
  Lu  Lu5  1  0.73651852  0.73651852  0.73651852  1
  Lu  Lu6  1  0.29784452  0.29784452  0.29784452  1
  O  O7  1  0.07434788  0.08433095  0.57890070  1
  O  O8  1  0.57890070  0.07434788  0.08433095  1
  O  O9  1  0.08433095  0.57890070  0.07434788  1
  O  O10  1  0.12279348  0.61859382  0.66420277  1
  O  O11  1  0.66420277  0.12279348  0.61859382  1
  O  O12  1  0.61859382  0.66420277  0.12279348  1
  O  O13  1  0.03401905  0.48261857  0.55153739  1
  O  O14  1  0.55153739  0.03401905  0.48261857  1
  O  O15  1  0.48261857  0.55153739  0.03401905  1
