# generated using pymatgen
data_Li4Sb(TeO4)3
_symmetry_space_group_name_H-M   'P 1'
_cell_length_a   5.60855651
_cell_length_b   11.22569348
_cell_length_c   9.89350822
_cell_angle_alpha   28.18451556
_cell_angle_beta   51.14939853
_cell_angle_gamma   56.42377020
_symmetry_Int_Tables_number   1
_chemical_formula_structural   Li4Sb(TeO4)3
_chemical_formula_sum   'Li4 Sb1 Te3 O12'
_cell_volume   229.11907425
_cell_formula_units_Z   1
loop_
 _symmetry_equiv_pos_site_id
 _symmetry_equiv_pos_as_xyz
  1  'x, y, z'
loop_
 _atom_site_type_symbol
 _atom_site_label
 _atom_site_symmetry_multiplicity
 _atom_site_fract_x
 _atom_site_fract_y
 _atom_site_fract_z
 _atom_site_occupancy
  Li  Li0  1  0.29342491  0.99332770  0.29319918  1
  Li  Li1  1  0.28548333  0.50549927  0.28723376  1
  Li  Li2  1  0.76754564  0.00352472  0.77543029  1
  Li  Li3  1  0.77995610  0.49783324  0.77142348  1
  Sb  Sb4  1  0.00190704  0.00034545  0.00137626  1
  Te  Te5  1  0.50131296  0.99993028  0.50250060  1
  Te  Te6  1  0.50411954  0.50047956  0.50349707  1
  Te  Te7  1  0.00200018  0.49884816  0.00470387  1
  O  O8  1  0.40014055  0.29577772  0.12737042  1
  O  O9  1  0.24768465  0.13793488  0.60457891  1
  O  O10  1  0.11511513  0.32075450  0.73338035  1
  O  O11  1  0.87454474  0.16930435  0.25586079  1
  O  O12  1  0.37604115  0.80827535  0.11463591  1
  O  O13  1  0.72905020  0.37439839  0.38095032  1
  O  O14  1  0.23892269  0.62627476  0.62142205  1
  O  O15  1  0.62391020  0.17116897  0.88772859  1
  O  O16  1  0.12750065  0.84648256  0.71049909  1
  O  O17  1  0.88644631  0.69741418  0.22991357  1
  O  O18  1  0.72074685  0.86532112  0.39059128  1
  O  O19  1  0.59534817  0.68710484  0.87490421  1
