# generated using pymatgen
data_Rb8Tl11
_symmetry_space_group_name_H-M   'P 1'
_cell_length_a   18.93183013
_cell_length_b   18.93182972
_cell_length_c   18.93183042
_cell_angle_alpha   32.49881228
_cell_angle_beta   32.49881432
_cell_angle_gamma   32.49881380
_symmetry_Int_Tables_number   1
_chemical_formula_structural   Rb8Tl11
_chemical_formula_sum   'Rb16 Tl22'
_cell_volume   1741.72868109
_cell_formula_units_Z   2
loop_
 _symmetry_equiv_pos_site_id
 _symmetry_equiv_pos_as_xyz
  1  'x, y, z'
loop_
 _atom_site_type_symbol
 _atom_site_label
 _atom_site_symmetry_multiplicity
 _atom_site_fract_x
 _atom_site_fract_y
 _atom_site_fract_z
 _atom_site_occupancy
  Tl  Tl0  1  0.42613792  0.72790522  0.00406724  1
  Tl  Tl1  1  0.00406724  0.42613792  0.72790522  1
  Tl  Tl2  1  0.72790522  0.00406724  0.42613792  1
  Tl  Tl3  1  0.77209478  0.07386208  0.49593276  1
  Tl  Tl4  1  0.49593276  0.77209478  0.07386208  1
  Tl  Tl5  1  0.07386208  0.49593276  0.77209478  1
  Tl  Tl6  1  0.57386208  0.27209478  0.99593276  1
  Tl  Tl7  1  0.99593276  0.57386208  0.27209478  1
  Tl  Tl8  1  0.27209478  0.99593276  0.57386208  1
  Tl  Tl9  1  0.22790522  0.92613792  0.50406724  1
  Tl  Tl10  1  0.50406724  0.22790522  0.92613792  1
  Tl  Tl11  1  0.92613792  0.50406724  0.22790522  1
  Tl  Tl12  1  0.46170527  0.03829473  0.25000000  1
  Tl  Tl13  1  0.25000000  0.46170527  0.03829473  1
  Tl  Tl14  1  0.03829473  0.25000000  0.46170527  1
  Tl  Tl15  1  0.53829473  0.96170527  0.75000000  1
  Tl  Tl16  1  0.75000000  0.53829473  0.96170527  1
  Tl  Tl17  1  0.96170527  0.75000000  0.53829473  1
  Tl  Tl18  1  0.19927113  0.19927113  0.19927113  1
  Tl  Tl19  1  0.30072887  0.30072887  0.30072887  1
  Tl  Tl20  1  0.80072887  0.80072887  0.80072887  1
  Tl  Tl21  1  0.69927113  0.69927113  0.69927113  1
  Rb  Rb22  1  0.65205113  0.32468299  0.08908500  1
  Rb  Rb23  1  0.08908500  0.65205113  0.32468299  1
  Rb  Rb24  1  0.32468299  0.08908500  0.65205113  1
  Rb  Rb25  1  0.17531701  0.84794887  0.41091500  1
  Rb  Rb26  1  0.41091500  0.17531701  0.84794887  1
  Rb  Rb27  1  0.84794887  0.41091500  0.17531701  1
  Rb  Rb28  1  0.34794887  0.67531701  0.91091500  1
  Rb  Rb29  1  0.91091500  0.34794887  0.67531701  1
  Rb  Rb30  1  0.67531701  0.91091500  0.34794887  1
  Rb  Rb31  1  0.82468299  0.15205113  0.58908500  1
  Rb  Rb32  1  0.58908500  0.82468299  0.15205113  1
  Rb  Rb33  1  0.15205113  0.58908500  0.82468299  1
  Rb  Rb34  1  0.07883719  0.07883719  0.07883719  1
  Rb  Rb35  1  0.42116281  0.42116281  0.42116281  1
  Rb  Rb36  1  0.92116281  0.92116281  0.92116281  1
  Rb  Rb37  1  0.57883719  0.57883719  0.57883719  1
