# generated using pymatgen
data_TlSbAu
_symmetry_space_group_name_H-M   'P 1'
_cell_length_a   6.68126824
_cell_length_b   6.71542127
_cell_length_c   14.85436724
_cell_angle_alpha   90.00000000
_cell_angle_beta   90.00000000
_cell_angle_gamma   90.00000000
_symmetry_Int_Tables_number   1
_chemical_formula_structural   TlSbAu
_chemical_formula_sum   'Tl8 Sb8 Au8'
_cell_volume   666.47878039
_cell_formula_units_Z   8
loop_
 _symmetry_equiv_pos_site_id
 _symmetry_equiv_pos_as_xyz
  1  'x, y, z'
loop_
 _atom_site_type_symbol
 _atom_site_label
 _atom_site_symmetry_multiplicity
 _atom_site_fract_x
 _atom_site_fract_y
 _atom_site_fract_z
 _atom_site_occupancy
  Au  Au0  1  0.47629039  0.03616849  0.39150766  1
  Au  Au1  1  0.97629039  0.96383151  0.60849234  1
  Au  Au2  1  0.97629039  0.46383151  0.89150766  1
  Au  Au3  1  0.47629039  0.53616849  0.10849234  1
  Au  Au4  1  0.00044801  0.03663586  0.14177625  1
  Au  Au5  1  0.50044801  0.96336414  0.85822375  1
  Au  Au6  1  0.50044801  0.46336414  0.64177625  1
  Au  Au7  1  0.00044801  0.53663586  0.35822375  1
  Tl  Tl8  1  0.36480720  0.12568887  0.03360794  1
  Tl  Tl9  1  0.86480720  0.87431113  0.96639206  1
  Tl  Tl10  1  0.86480720  0.37431113  0.53360794  1
  Tl  Tl11  1  0.36480720  0.62568887  0.46639206  1
  Tl  Tl12  1  0.59156733  0.41683828  0.29521419  1
  Tl  Tl13  1  0.09156733  0.58316172  0.70478581  1
  Tl  Tl14  1  0.09156733  0.08316172  0.79521419  1
  Tl  Tl15  1  0.59156733  0.91683828  0.20478581  1
  Sb  Sb16  1  0.35757547  0.10643936  0.57167087  1
  Sb  Sb17  1  0.85757547  0.89356064  0.42832913  1
  Sb  Sb18  1  0.85757547  0.39356064  0.07167087  1
  Sb  Sb19  1  0.35757547  0.60643936  0.92832913  1
  Sb  Sb20  1  0.11061160  0.15083003  0.31910513  1
  Sb  Sb21  1  0.61061160  0.84916997  0.68089487  1
  Sb  Sb22  1  0.61061160  0.34916997  0.81910513  1
  Sb  Sb23  1  0.11061160  0.65083003  0.18089487  1
