# generated using pymatgen
data_AsS
_symmetry_space_group_name_H-M   'P 1'
_cell_length_a   7.12719768
_cell_length_b   9.82084483
_cell_length_c   14.70253121
_cell_angle_alpha   90.00000000
_cell_angle_beta   90.00000000
_cell_angle_gamma   106.32197790
_symmetry_Int_Tables_number   1
_chemical_formula_structural   AsS
_chemical_formula_sum   'As16 S16'
_cell_volume   987.62973146
_cell_formula_units_Z   16
loop_
 _symmetry_equiv_pos_site_id
 _symmetry_equiv_pos_as_xyz
  1  'x, y, z'
loop_
 _atom_site_type_symbol
 _atom_site_label
 _atom_site_symmetry_multiplicity
 _atom_site_fract_x
 _atom_site_fract_y
 _atom_site_fract_z
 _atom_site_occupancy
  As  As0  1  0.27472384  0.62312260  0.48546287  1
  As  As1  1  0.15840642  0.31118397  0.87365532  1
  As  As2  1  0.77606478  0.46026355  0.34342980  1
  As  As3  1  0.22393522  0.53973645  0.65657020  1
  As  As4  1  0.34159358  0.18881603  0.37365532  1
  As  As5  1  0.77472384  0.12312260  0.01453713  1
  As  As6  1  0.72393522  0.03973645  0.84342980  1
  As  As7  1  0.27606478  0.96026355  0.15657020  1
  As  As8  1  0.72527616  0.37687740  0.51453713  1
  As  As9  1  0.35198430  0.91004624  0.63753811  1
  As  As10  1  0.65840642  0.81118397  0.62634468  1
  As  As11  1  0.14801570  0.58995376  0.13753811  1
  As  As12  1  0.64801570  0.08995376  0.36246189  1
  As  As13  1  0.85198430  0.41004624  0.86246189  1
  As  As14  1  0.84159358  0.68881603  0.12634468  1
  As  As15  1  0.22527616  0.87687740  0.98546287  1
  S  S16  1  0.34872660  0.76995633  0.21658845  1
  S  S17  1  0.10335613  0.21304404  0.01406784  1
  S  S18  1  0.21509409  0.83627856  0.50091114  1
  S  S19  1  0.03884803  0.10481841  0.79821495  1
  S  S20  1  0.89664387  0.78695596  0.98593216  1
  S  S21  1  0.28490591  0.66372144  1.00091114  1
  S  S22  1  0.71509409  0.33627856  -0.00091114  1
  S  S23  1  0.60335613  0.71304404  0.48593216  1
  S  S24  1  0.84872660  0.26995633  0.28341155  1
  S  S25  1  0.96115197  0.89518159  0.20178505  1
  S  S26  1  0.15127340  0.73004367  0.71658845  1
  S  S27  1  0.53884803  0.60481841  0.70178505  1
  S  S28  1  0.46115197  0.39518159  0.29821495  1
  S  S29  1  0.78490591  0.16372144  0.49908886  1
  S  S30  1  0.39664387  0.28695596  0.51406784  1
  S  S31  1  0.65127340  0.23004367  0.78341155  1
