# generated using pymatgen
data_K2BeH4(SeO5)2
_symmetry_space_group_name_H-M   'P 1'
_cell_length_a   7.61593130
_cell_length_b   11.66110310
_cell_length_c   12.03312639
_cell_angle_alpha   90.00000000
_cell_angle_beta   90.00000000
_cell_angle_gamma   95.94783615
_symmetry_Int_Tables_number   1
_chemical_formula_structural   K2BeH4(SeO5)2
_chemical_formula_sum   'K8 Be4 H16 Se8 O40'
_cell_volume   1062.91088865
_cell_formula_units_Z   4
loop_
 _symmetry_equiv_pos_site_id
 _symmetry_equiv_pos_as_xyz
  1  'x, y, z'
loop_
 _atom_site_type_symbol
 _atom_site_label
 _atom_site_symmetry_multiplicity
 _atom_site_fract_x
 _atom_site_fract_y
 _atom_site_fract_z
 _atom_site_occupancy
  Se  Se0  1  0.25080243  0.12257846  0.05140407  1
  Se  Se1  1  0.24919757  0.87742154  0.55140407  1
  Se  Se2  1  0.74919757  0.87742154  0.94859593  1
  Se  Se3  1  0.75080243  0.12257846  0.44859593  1
  Se  Se4  1  0.16278190  0.62972454  0.11203293  1
  Se  Se5  1  0.33721810  0.37027546  0.61203293  1
  Se  Se6  1  0.83721810  0.37027546  0.88796707  1
  Se  Se7  1  0.66278190  0.62972454  0.38796707  1
  K  K8  1  0.01875312  0.90555936  0.24099466  1
  K  K9  1  0.48124688  0.09444064  0.74099466  1
  K  K10  1  0.98124688  0.09444064  0.75900534  1
  K  K11  1  0.51875312  0.90555936  0.25900534  1
  K  K12  1  0.67060840  0.61108866  0.09775854  1
  K  K13  1  0.82939160  0.38891134  0.59775854  1
  K  K14  1  0.32939160  0.38891134  0.90224146  1
  K  K15  1  0.17060840  0.61108866  0.40224146  1
  Be  Be16  1  0.91507108  0.23470427  0.08491673  1
  Be  Be17  1  0.58492892  0.76529573  0.58491673  1
  Be  Be18  1  0.08492892  0.76529573  0.91508327  1
  Be  Be19  1  0.41507108  0.23470427  0.41508327  1
  O  O20  1  0.24762414  0.13063775  0.91423281  1
  O  O21  1  0.25237586  0.86936225  0.41423281  1
  O  O22  1  0.75237586  0.86936225  0.08576719  1
  O  O23  1  0.74762414  0.13063775  0.58576719  1
  O  O24  1  0.30377215  0.99405151  0.09431678  1
  O  O25  1  0.19622785  0.00594849  0.59431678  1
  O  O26  1  0.69622785  0.00594849  0.90568322  1
  O  O27  1  0.80377215  0.99405151  0.40568322  1
  O  O28  1  0.39533362  0.22985088  0.10031415  1
  O  O29  1  0.10466638  0.77014912  0.60031415  1
  O  O30  1  0.60466638  0.77014912  0.89968585  1
  O  O31  1  0.89533362  0.22985088  0.39968585  1
  O  O32  1  0.04918621  0.13399806  0.10814729  1
  O  O33  1  0.45081379  0.86600194  0.60814729  1
  O  O34  1  0.95081379  0.86600194  0.89185271  1
  O  O35  1  0.54918621  0.13399806  0.39185271  1
  O  O36  1  0.31323261  0.56810736  0.04074596  1
  O  O37  1  0.18676739  0.43189264  0.54074596  1
  O  O38  1  0.68676739  0.43189264  0.95925404  1
  O  O39  1  0.81323261  0.56810736  0.45925404  1
  O  O40  1  0.25311978  0.73416466  0.19450410  1
  O  O41  1  0.24688022  0.26583534  0.69450410  1
  O  O42  1  0.74688022  0.26583534  0.80549590  1
  O  O43  1  0.75311978  0.73416466  0.30549590  1
  O  O44  1  0.03111403  0.53820982  0.18985708  1
  O  O45  1  0.46888597  0.46179018  0.68985708  1
  O  O46  1  0.96888597  0.46179018  0.81014292  1
  O  O47  1  0.53111403  0.53820982  0.31014292  1
  O  O48  1  0.02075206  0.68843761  0.02245553  1
  O  O49  1  0.47924794  0.31156239  0.52245553  1
  O  O50  1  0.97924794  0.31156239  0.97754447  1
  O  O51  1  0.52075206  0.68843761  0.47754447  1
  O  O52  1  0.90376475  0.31968653  0.19184866  1
  O  O53  1  0.59623525  0.68031347  0.69184866  1
  O  O54  1  0.09623525  0.68031347  0.80815134  1
  O  O55  1  0.40376475  0.31968653  0.30815134  1
  O  O56  1  0.72044360  0.15941607  0.07362670  1
  O  O57  1  0.77955640  0.84058393  0.57362670  1
  O  O58  1  0.27955640  0.84058393  0.92637330  1
  O  O59  1  0.22044360  0.15941607  0.42637330  1
  H  H60  1  0.96154481  0.40132094  0.18846528  1
  H  H61  1  0.53845519  0.59867906  0.68846528  1
  H  H62  1  0.03845519  0.59867906  0.81153472  1
  H  H63  1  0.46154481  0.40132094  0.31153472  1
  H  H64  1  0.89646802  0.28981149  0.26957106  1
  H  H65  1  0.60353198  0.71018851  0.76957106  1
  H  H66  1  0.10353198  0.71018851  0.73042894  1
  H  H67  1  0.39646802  0.28981149  0.23042894  1
  H  H68  1  0.60567474  0.19323180  0.08339602  1
  H  H69  1  0.89432526  0.80676820  0.58339602  1
  H  H70  1  0.39432526  0.80676820  0.91660398  1
  H  H71  1  0.10567474  0.19323180  0.41660398  1
  H  H72  1  0.70652951  0.10003212  0.01286896  1
  H  H73  1  0.79347049  0.89996788  0.51286896  1
  H  H74  1  0.29347049  0.89996788  0.98713104  1
  H  H75  1  0.20652951  0.10003212  0.48713104  1
