# generated using pymatgen
data_K2Co3H6S3O16
_symmetry_space_group_name_H-M   'P 1'
_cell_length_a   7.70020133
_cell_length_b   9.77401478
_cell_length_c   9.91399299
_cell_angle_alpha   90.00000000
_cell_angle_beta   90.00000000
_cell_angle_gamma   113.19461954
_symmetry_Int_Tables_number   1
_chemical_formula_structural   K2Co3H6S3O16
_chemical_formula_sum   'K4 Co6 H12 S6 O32'
_cell_volume   685.83654271
_cell_formula_units_Z   2
loop_
 _symmetry_equiv_pos_site_id
 _symmetry_equiv_pos_as_xyz
  1  'x, y, z'
loop_
 _atom_site_type_symbol
 _atom_site_label
 _atom_site_symmetry_multiplicity
 _atom_site_fract_x
 _atom_site_fract_y
 _atom_site_fract_z
 _atom_site_occupancy
  Co  Co0  1  0.19814158  0.99999424  0.02915704  1
  Co  Co1  1  0.80185842  0.00000576  0.52915704  1
  Co  Co2  1  0.44806277  0.82923173  0.81425392  1
  Co  Co3  1  0.55193723  0.17076827  0.31425392  1
  Co  Co4  1  0.38118823  0.82923642  0.31423738  1
  Co  Co5  1  0.61881177  0.17076358  0.81423738  1
  K  K6  1  0.23502165  0.38566968  0.76970758  1
  K  K7  1  0.76497835  0.61433032  0.26970758  1
  K  K8  1  0.15078194  0.38567345  0.26971605  1
  K  K9  1  0.84921806  0.61432655  0.76971605  1
  O  O10  1  0.64032613  0.75602570  0.91893056  1
  O  O11  1  0.35967387  0.24397430  0.41893056  1
  O  O12  1  0.11573422  0.75602382  0.41891611  1
  O  O13  1  0.88426578  0.24397618  0.91891611  1
  H  H14  1  0.57089687  0.67022571  0.97895590  1
  H  H15  1  0.42910313  0.32977429  0.47895590  1
  H  H16  1  0.09933431  0.67020967  0.47893730  1
  H  H17  1  0.90066569  0.32979033  0.97893730  1
  H  H18  1  0.73619412  0.83115314  0.97546092  1
  H  H19  1  0.26380588  0.16884686  0.47546092  1
  H  H20  1  0.09497891  0.83114716  0.47544593  1
  H  H21  1  0.90502109  0.16885284  0.97544593  1
  O  O22  1  0.31338933  0.00001898  0.22726352  1
  O  O23  1  0.68661067  0.99998102  0.72726352  1
  H  H24  1  0.20323695  0.00002307  0.27686709  1
  H  H25  1  0.79676305  0.99997693  0.77686709  1
  O  O26  1  0.45097438  0.99997918  0.94848586  1
  O  O27  1  0.54902562  0.00002082  0.44848586  1
  H  H28  1  0.52441129  1.00001205  0.02866667  1
  H  H29  1  0.47558871  -0.00001205  0.52866667  1
  S  S30  1  0.13139702  0.65042207  0.04363635  1
  S  S31  1  0.86860298  0.34957793  0.54363635  1
  S  S32  1  0.51904522  0.65041012  0.54363996  1
  S  S33  1  0.48095478  0.34958988  0.04363996  1
  O  O34  1  0.04880225  0.76656189  0.03654196  1
  O  O35  1  0.95119775  0.23343811  0.53654196  1
  O  O36  1  0.71775329  0.76656965  0.53653285  1
  O  O37  1  0.28224671  0.23343035  0.03653285  1
  O  O38  1  0.22769612  0.64837549  0.91295581  1
  O  O39  1  0.77230388  0.35162451  0.41295581  1
  O  O40  1  0.42065088  0.64835326  0.41297583  1
  O  O41  1  0.57934912  0.35164674  0.91297583  1
  O  O42  1  0.97529453  0.50336292  0.06496967  1
  O  O43  1  0.02470547  0.49663708  0.56496967  1
  O  O44  1  0.52813654  0.50336970  0.56496173  1
  O  O45  1  0.47186346  0.49663030  0.06496173  1
  O  O46  1  0.26609057  0.68114079  0.15792240  1
  O  O47  1  0.73390943  0.31885921  0.65792240  1
  O  O48  1  0.41507801  0.68112392  0.65794617  1
  O  O49  1  0.58492199  0.31887608  0.15794617  1
  S  S50  1  0.81668919  0.99999968  0.20970489  1
  S  S51  1  0.18331081  0.00000032  0.70970489  1
  O  O52  1  0.91998449  0.99998929  0.08110441  1
  O  O53  1  0.08001551  0.00001071  0.58110441  1
  O  O54  1  0.93612749  1.00000025  0.32833419  1
  O  O55  1  0.06387251  -0.00000025  0.82833419  1
  O  O56  1  0.77451285  0.13617004  0.20979144  1
  O  O57  1  0.22548715  0.86382996  0.70979144  1
  O  O58  1  0.36162706  0.13618378  0.70981154  1
  O  O59  1  0.63837294  0.86381622  0.20981154  1
