# generated using pymatgen
data_LiCuBO3
_symmetry_space_group_name_H-M   'P 1'
_cell_length_a   5.22354019
_cell_length_b   5.22251106
_cell_length_c   9.58791692
_cell_angle_alpha   91.01569023
_cell_angle_beta   91.01899514
_cell_angle_gamma   119.28154578
_symmetry_Int_Tables_number   1
_chemical_formula_structural   LiCuBO3
_chemical_formula_sum   'Li4 Cu4 B4 O12'
_cell_volume   227.99739387
_cell_formula_units_Z   4
loop_
 _symmetry_equiv_pos_site_id
 _symmetry_equiv_pos_as_xyz
  1  'x, y, z'
loop_
 _atom_site_type_symbol
 _atom_site_label
 _atom_site_symmetry_multiplicity
 _atom_site_fract_x
 _atom_site_fract_y
 _atom_site_fract_z
 _atom_site_occupancy
  Li  Li0  1  0.34142457  0.33900567  0.90698263  1
  Li  Li1  1  0.33900094  0.34135874  0.40715643  1
  Li  Li2  1  0.67376925  0.65474317  0.15652588  1
  Li  Li3  1  0.65465194  0.67384326  0.65666096  1
  Cu  Cu4  1  0.66920444  0.01944942  0.37896645  1
  Cu  Cu5  1  0.98084385  0.32449667  0.12993287  1
  Cu  Cu6  1  0.01911339  0.66947065  0.87912074  1
  Cu  Cu7  1  0.32468473  0.98041313  0.63002629  1
  B  B8  1  0.66119783  -0.00063828  0.87508599  1
  B  B9  1  0.00332935  0.34089035  0.62546549  1
  B  B10  1  -0.00078293  0.66083749  0.37497815  1
  B  B11  1  0.34059981  0.00337874  0.12538427  1
  O  O12  1  0.74630919  0.07946010  0.58594223  1
  O  O13  1  0.41856473  0.03440465  0.83491748  1
  O  O14  1  0.91899033  0.25123840  0.92229782  1
  O  O15  1  0.35954937  0.27041605  0.11441558  1
  O  O16  1  0.97130723  0.58124840  0.67221262  1
  O  O17  1  0.27025929  0.35974175  0.61452622  1
  O  O18  1  0.73372592  0.64721918  0.36643902  1
  O  O19  1  0.03438627  0.41815317  0.33481843  1
  O  O20  1  0.64749962  0.73373242  0.86656557  1
  O  O21  1  0.07907569  0.74639330  0.08599855  1
  O  O22  1  0.58091894  0.97138736  0.17205767  1
  O  O23  1  0.25113024  0.91856421  0.42231564  1
