# generated using pymatgen
data_Rb2BeH4(SO5)2
_symmetry_space_group_name_H-M   'P 1'
_cell_length_a   7.53370497
_cell_length_b   11.50453854
_cell_length_c   12.04303205
_cell_angle_alpha   90.00000000
_cell_angle_beta   90.00000000
_cell_angle_gamma   96.42896003
_symmetry_Int_Tables_number   1
_chemical_formula_structural   Rb2BeH4(SO5)2
_chemical_formula_sum   'Rb8 Be4 H16 S8 O40'
_cell_volume   1037.22732209
_cell_formula_units_Z   4
loop_
 _symmetry_equiv_pos_site_id
 _symmetry_equiv_pos_as_xyz
  1  'x, y, z'
loop_
 _atom_site_type_symbol
 _atom_site_label
 _atom_site_symmetry_multiplicity
 _atom_site_fract_x
 _atom_site_fract_y
 _atom_site_fract_z
 _atom_site_occupancy
  S  S0  1  0.26007372  0.12731815  0.05472108  1
  S  S1  1  0.23992628  0.87268185  0.55472108  1
  S  S2  1  0.73992628  0.87268185  0.94527892  1
  S  S3  1  0.76007372  0.12731815  0.44527892  1
  S  S4  1  0.16054071  0.63407804  0.10729837  1
  S  S5  1  0.33945929  0.36592196  0.60729837  1
  S  S6  1  0.83945929  0.36592196  0.89270163  1
  S  S7  1  0.66054071  0.63407804  0.39270163  1
  Rb  Rb8  1  0.01135127  0.90832424  0.23831900  1
  Rb  Rb9  1  0.48864873  0.09167576  0.73831900  1
  Rb  Rb10  1  0.98864873  0.09167576  0.76168100  1
  Rb  Rb11  1  0.51135127  0.90832424  0.26168100  1
  Rb  Rb12  1  0.66568758  0.60551631  0.10200308  1
  Rb  Rb13  1  0.83431242  0.39448369  0.60200308  1
  Rb  Rb14  1  0.33431242  0.39448369  0.89799692  1
  Rb  Rb15  1  0.16568758  0.60551631  0.39799692  1
  Be  Be16  1  0.92453621  0.23226332  0.08034057  1
  Be  Be17  1  0.57546379  0.76773668  0.58034057  1
  Be  Be18  1  0.07546379  0.76773668  0.91965943  1
  Be  Be19  1  0.42453621  0.23226332  0.41965943  1
  O  O20  1  0.26238936  0.14063033  0.93321342  1
  O  O21  1  0.23761064  0.85936967  0.43321342  1
  O  O22  1  0.73761064  0.85936967  0.06678658  1
  O  O23  1  0.76238936  0.14063033  0.56678658  1
  O  O24  1  0.29841010  0.00750077  0.08694710  1
  O  O25  1  0.20158990  0.99249923  0.58694710  1
  O  O26  1  0.70158990  0.99249923  0.91305290  1
  O  O27  1  0.79841010  0.00750077  0.41305290  1
  O  O28  1  0.39341467  0.21692252  0.10738260  1
  O  O29  1  0.10658533  0.78307748  0.60738260  1
  O  O30  1  0.60658533  0.78307748  0.89261740  1
  O  O31  1  0.89341467  0.21692252  0.39261740  1
  O  O32  1  0.07595365  0.14170037  0.10063513  1
  O  O33  1  0.42404635  0.85829963  0.60063513  1
  O  O34  1  0.92404635  0.85829963  0.89936487  1
  O  O35  1  0.57595365  0.14170037  0.39936487  1
  O  O36  1  0.29133075  0.58073836  0.03913075  1
  O  O37  1  0.20866925  0.41926164  0.53913075  1
  O  O38  1  0.70866925  0.41926164  0.96086925  1
  O  O39  1  0.79133075  0.58073836  0.46086925  1
  O  O40  1  0.24830772  0.72396920  0.18328768  1
  O  O41  1  0.25169228  0.27603080  0.68328768  1
  O  O42  1  0.75169228  0.27603080  0.81671232  1
  O  O43  1  0.74830772  0.72396920  0.31671232  1
  O  O44  1  0.04336646  0.54576742  0.17204220  1
  O  O45  1  0.45663354  0.45423258  0.67204220  1
  O  O46  1  0.95663354  0.45423258  0.82795780  1
  O  O47  1  0.54336646  0.54576742  0.32795780  1
  O  O48  1  0.03389267  0.69370988  0.03139102  1
  O  O49  1  0.46610733  0.30629012  0.53139102  1
  O  O50  1  0.96610733  0.30629012  0.96860898  1
  O  O51  1  0.53389267  0.69370988  0.46860898  1
  O  O52  1  0.91502400  0.32163211  0.18590862  1
  O  O53  1  0.58497600  0.67836789  0.68590862  1
  O  O54  1  0.08497600  0.67836789  0.81409138  1
  O  O55  1  0.41502400  0.32163211  0.31409138  1
  O  O56  1  0.73067721  0.14741665  0.08110495  1
  O  O57  1  0.76932279  0.85258335  0.58110495  1
  O  O58  1  0.26932279  0.85258335  0.91889505  1
  O  O59  1  0.23067721  0.14741665  0.41889505  1
  H  H60  1  0.97217776  0.40454850  0.18053326  1
  H  H61  1  0.52782224  0.59545150  0.68053326  1
  H  H62  1  0.02782224  0.59545150  0.81946674  1
  H  H63  1  0.47217776  0.40454850  0.31946674  1
  H  H64  1  0.90706127  0.29160635  0.26328218  1
  H  H65  1  0.59293873  0.70839365  0.76328218  1
  H  H66  1  0.09293873  0.70839365  0.73671782  1
  H  H67  1  0.40706127  0.29160635  0.23671782  1
  H  H68  1  0.61530769  0.18162083  0.08978972  1
  H  H69  1  0.88469231  0.81837917  0.58978972  1
  H  H70  1  0.38469231  0.81837917  0.91021028  1
  H  H71  1  0.11530769  0.18162083  0.41021028  1
  H  H72  1  0.71458861  0.08745310  0.02010045  1
  H  H73  1  0.78541139  0.91254690  0.52010045  1
  H  H74  1  0.28541139  0.91254690  0.97989955  1
  H  H75  1  0.21458861  0.08745310  0.47989955  1
