# generated using pymatgen
data_La3AgSnS7
_symmetry_space_group_name_H-M   'P 1'
_cell_length_a   10.47675804
_cell_length_b   10.47675836
_cell_length_c   6.07142908
_cell_angle_alpha   90.00000000
_cell_angle_beta   90.00000000
_cell_angle_gamma   119.99999903
_symmetry_Int_Tables_number   1
_chemical_formula_structural   La3AgSnS7
_chemical_formula_sum   'La6 Ag2 Sn2 S14'
_cell_volume   577.13233044
_cell_formula_units_Z   2
loop_
 _symmetry_equiv_pos_site_id
 _symmetry_equiv_pos_as_xyz
  1  'x, y, z'
loop_
 _atom_site_type_symbol
 _atom_site_label
 _atom_site_symmetry_multiplicity
 _atom_site_fract_x
 _atom_site_fract_y
 _atom_site_fract_z
 _atom_site_occupancy
  La  La0  1  0.13185540  0.35876253  0.08188972  1
  La  La1  1  0.77309286  0.13185540  0.58188972  1
  La  La2  1  0.35876253  0.22690714  0.58188972  1
  La  La3  1  0.64123747  0.77309286  0.08188972  1
  La  La4  1  0.22690714  0.86814460  0.08188972  1
  La  La5  1  0.86814460  0.64123747  0.58188972  1
  Sn  Sn6  1  0.33333300  0.66666700  0.65749440  1
  Sn  Sn7  1  0.66666700  0.33333300  0.15749440  1
  Ag  Ag8  1  0.00000000  0.00000000  1.00254136  1
  Ag  Ag9  1  0.00000000  0.00000000  0.50254136  1
  S  S10  1  0.26766173  0.16637675  0.05515564  1
  S  S11  1  0.10128498  0.26766173  0.55515564  1
  S  S12  1  0.16637675  0.89871502  0.55515564  1
  S  S13  1  0.83362325  0.10128498  0.05515564  1
  S  S14  1  0.89871502  0.73233827  0.05515564  1
  S  S15  1  0.73233827  0.83362325  0.55515564  1
  S  S16  1  0.51586299  0.09367289  0.32781604  1
  S  S17  1  0.42219010  0.51586299  0.82781604  1
  S  S18  1  0.09367289  0.57780990  0.82781604  1
  S  S19  1  0.90632711  0.42219010  0.32781604  1
  S  S20  1  0.57780990  0.48413701  0.32781604  1
  S  S21  1  0.48413701  0.90632711  0.82781604  1
  S  S22  1  0.33333300  0.66666700  0.26568006  1
  S  S23  1  0.66666700  0.33333300  0.76568006  1
