# generated using pymatgen
data_Na2RuO4
_symmetry_space_group_name_H-M   'P 1'
_cell_length_a   7.13048160
_cell_length_b   10.84312444
_cell_length_c   11.05575139
_cell_angle_alpha   119.20345418
_cell_angle_beta   90.00000000
_cell_angle_gamma   90.00000000
_symmetry_Int_Tables_number   1
_chemical_formula_structural   Na2RuO4
_chemical_formula_sum   'Na16 Ru8 O32'
_cell_volume   746.14359155
_cell_formula_units_Z   8
loop_
 _symmetry_equiv_pos_site_id
 _symmetry_equiv_pos_as_xyz
  1  'x, y, z'
loop_
 _atom_site_type_symbol
 _atom_site_label
 _atom_site_symmetry_multiplicity
 _atom_site_fract_x
 _atom_site_fract_y
 _atom_site_fract_z
 _atom_site_occupancy
  Ru  Ru0  1  0.75542931  0.49969313  0.74922687  1
  Ru  Ru1  1  0.25542931  0.50030687  0.75077313  1
  Ru  Ru2  1  0.24457069  0.50030687  0.25077313  1
  Ru  Ru3  1  0.74457069  0.49969313  0.24922687  1
  Ru  Ru4  1  0.77035158  0.99915204  0.75179543  1
  Ru  Ru5  1  0.27035158  0.00084796  0.74820457  1
  Ru  Ru6  1  0.22964842  0.00084796  0.24820457  1
  Ru  Ru7  1  0.72964842  0.99915204  0.25179543  1
  Na  Na8  1  0.54052332  0.69432729  0.58815162  1
  Na  Na9  1  0.04052332  0.30567271  0.91184838  1
  Na  Na10  1  0.45947668  0.30567271  0.41184838  1
  Na  Na11  1  0.95947668  0.69432729  0.08815162  1
  Na  Na12  1  0.43177557  0.64951321  0.08509888  1
  Na  Na13  1  0.93177557  0.35048679  0.41490112  1
  Na  Na14  1  0.56822443  0.35048679  0.91490112  1
  Na  Na15  1  0.06822443  0.64951321  0.58509888  1
  Na  Na16  1  0.48703261  0.80951446  0.91198013  1
  Na  Na17  1  0.98703261  0.19048554  0.58801987  1
  Na  Na18  1  0.51296739  0.19048554  0.08801987  1
  Na  Na19  1  0.01296739  0.80951446  0.41198013  1
  Na  Na20  1  0.99784008  0.84683643  0.90101170  1
  Na  Na21  1  0.49784008  0.15316357  0.59898830  1
  Na  Na22  1  0.00215992  0.15316357  0.09898830  1
  Na  Na23  1  0.50215992  0.84683643  0.40101170  1
  O  O24  1  0.85637976  0.83630434  0.61286104  1
  O  O25  1  0.35637976  0.16369566  0.88713896  1
  O  O26  1  0.14362024  0.16369566  0.38713896  1
  O  O27  1  0.64362024  0.83630434  0.11286104  1
  O  O28  1  0.35206572  0.51840273  0.61126262  1
  O  O29  1  0.85206572  0.48159727  0.88873738  1
  O  O30  1  0.64793428  0.48159727  0.38873738  1
  O  O31  1  0.14793428  0.51840273  0.11126262  1
  O  O32  1  0.74703611  0.67090513  0.75986550  1
  O  O33  1  0.24703611  0.32909487  0.74013450  1
  O  O34  1  0.25296389  0.32909487  0.24013450  1
  O  O35  1  0.75296389  0.67090513  0.25986550  1
  O  O36  1  0.67969814  0.99259499  0.89920440  1
  O  O37  1  0.17969814  0.00740501  0.60079560  1
  O  O38  1  0.32030186  0.00740501  0.10079560  1
  O  O39  1  0.82030186  0.99259499  0.39920440  1
  O  O40  1  0.27322258  0.83586084  0.75209337  1
  O  O41  1  0.77322258  0.16413916  0.74790663  1
  O  O42  1  0.72677742  0.16413916  0.24790663  1
  O  O43  1  0.22677742  0.83586084  0.25209337  1
  O  O44  1  0.31758342  0.65936415  0.40295746  1
  O  O45  1  0.81758342  0.34063585  0.09704254  1
  O  O46  1  0.68241658  0.34063585  0.59704254  1
  O  O47  1  0.18241658  0.65936415  0.90295746  1
  O  O48  1  0.99173987  0.53143399  0.34698688  1
  O  O49  1  0.49173987  0.46856601  0.15301312  1
  O  O50  1  0.00826013  0.46856601  0.65301312  1
  O  O51  1  0.50826013  0.53143399  0.84698688  1
  O  O52  1  0.52148476  0.95151375  0.64891490  1
  O  O53  1  0.02148476  0.04848625  0.85108510  1
  O  O54  1  0.47851524  0.04848625  0.35108510  1
  O  O55  1  0.97851524  0.95151375  0.14891490  1
