# generated using pymatgen
data_CeNiSnH2
_symmetry_space_group_name_H-M   'P 1'
_cell_length_a   4.37138881
_cell_length_b   7.56335814
_cell_length_c   8.36400853
_cell_angle_alpha   90.00222166
_cell_angle_beta   89.99999448
_cell_angle_gamma   90.00009698
_symmetry_Int_Tables_number   1
_chemical_formula_structural   CeNiSnH2
_chemical_formula_sum   'Ce4 Ni4 Sn4 H8'
_cell_volume   276.53402104
_cell_formula_units_Z   4
loop_
 _symmetry_equiv_pos_site_id
 _symmetry_equiv_pos_as_xyz
  1  'x, y, z'
loop_
 _atom_site_type_symbol
 _atom_site_label
 _atom_site_symmetry_multiplicity
 _atom_site_fract_x
 _atom_site_fract_y
 _atom_site_fract_z
 _atom_site_occupancy
  Ce  Ce0  1  0.24999990  0.75000014  0.00000835  1
  Ce  Ce1  1  0.75000010  0.24999986  0.99999165  1
  Ce  Ce2  1  0.75000022  0.24998838  0.50000413  1
  Ce  Ce3  1  0.24999978  0.75001162  0.49999587  1
  Ni  Ni4  1  0.24999929  0.41725443  0.25001804  1
  Ni  Ni5  1  0.75000071  0.58274557  0.74998196  1
  Ni  Ni6  1  0.74999994  0.91725101  0.25001461  1
  Ni  Ni7  1  0.25000006  0.08274899  0.74998539  1
  Sn  Sn8  1  0.25000048  0.08362955  0.25003968  1
  Sn  Sn9  1  0.74999952  0.91637045  0.74996032  1
  Sn  Sn10  1  0.75000004  0.58361448  0.25004634  1
  Sn  Sn11  1  0.24999996  0.41638552  0.74995366  1
  H  H12  1  0.25000025  0.08324252  0.94339876  1
  H  H13  1  0.74999975  0.91675748  0.05660124  1
  H  H14  1  0.75000070  0.58324304  0.55657763  1
  H  H15  1  0.24999930  0.41675696  0.44342237  1
  H  H16  1  0.25000050  0.08319362  0.55657241  1
  H  H17  1  0.74999950  0.91680638  0.44342759  1
  H  H18  1  0.75000012  0.58319103  0.94339109  1
  H  H19  1  0.24999988  0.41680897  0.05660891  1
