# generated using pymatgen
data_In2Si2Pb2O9
_symmetry_space_group_name_H-M   'P 1'
_cell_length_a   7.12648254
_cell_length_b   10.72244420
_cell_length_c   11.61452614
_cell_angle_alpha   90.00000000
_cell_angle_beta   90.00000000
_cell_angle_gamma   90.00000000
_symmetry_Int_Tables_number   1
_chemical_formula_structural   In2Si2Pb2O9
_chemical_formula_sum   'In8 Si8 Pb8 O36'
_cell_volume   887.50440244
_cell_formula_units_Z   4
loop_
 _symmetry_equiv_pos_site_id
 _symmetry_equiv_pos_as_xyz
  1  'x, y, z'
loop_
 _atom_site_type_symbol
 _atom_site_label
 _atom_site_symmetry_multiplicity
 _atom_site_fract_x
 _atom_site_fract_y
 _atom_site_fract_z
 _atom_site_occupancy
  Pb  Pb0  1  0.26685117  0.45659386  0.56517328  1
  Pb  Pb1  1  0.76685117  0.54340614  0.43482672  1
  Pb  Pb2  1  0.76685117  0.04340614  0.06517328  1
  Pb  Pb3  1  0.26685117  0.95659386  0.93482672  1
  Pb  Pb4  1  0.25376349  0.05809722  0.54494055  1
  Pb  Pb5  1  0.75376349  0.94190278  0.45505945  1
  Pb  Pb6  1  0.75376349  0.44190278  0.04494055  1
  Pb  Pb7  1  0.25376349  0.55809722  0.95505945  1
  In  In8  1  0.21018585  0.49896825  0.25058453  1
  In  In9  1  0.71018585  0.50103175  0.74941547  1
  In  In10  1  0.71018585  0.00103175  0.75058453  1
  In  In11  1  0.21018585  0.99896825  0.24941547  1
  In  In12  1  0.23248612  0.24949669  0.08860092  1
  In  In13  1  0.73248612  0.75050331  0.91139908  1
  In  In14  1  0.73248612  0.25050331  0.58860092  1
  In  In15  1  0.23248612  0.74949669  0.41139908  1
  Si  Si16  1  0.49218237  0.24955263  0.34082801  1
  Si  Si17  1  0.99218237  0.75044737  0.65917199  1
  Si  Si18  1  0.99218237  0.25044737  0.84082801  1
  Si  Si19  1  0.49218237  0.74955263  0.15917199  1
  Si  Si20  1  0.92283143  0.24431280  0.33072911  1
  Si  Si21  1  0.42283143  0.75568720  0.66927089  1
  Si  Si22  1  0.42283143  0.25568720  0.83072911  1
  Si  Si23  1  0.92283143  0.74431280  0.16927089  1
  O  O24  1  0.33928641  0.06641705  0.09678883  1
  O  O25  1  0.83928641  0.93358295  0.90321117  1
  O  O26  1  0.83928641  0.43358295  0.59678883  1
  O  O27  1  0.33928641  0.56641705  0.40321117  1
  O  O28  1  0.38129009  0.32981135  0.24193269  1
  O  O29  1  0.88129009  0.67018865  0.75806731  1
  O  O30  1  0.88129009  0.17018865  0.74193269  1
  O  O31  1  0.38129009  0.82981135  0.25806731  1
  O  O32  1  0.11024870  0.42988290  0.08838154  1
  O  O33  1  0.61024870  0.57011710  0.91161846  1
  O  O34  1  0.61024870  0.07011710  0.58838154  1
  O  O35  1  0.11024870  0.92988290  0.41161846  1
  O  O36  1  0.51890482  0.32643875  0.46295645  1
  O  O37  1  0.01890482  0.67356125  0.53704355  1
  O  O38  1  0.01890482  0.17356125  0.96295645  1
  O  O39  1  0.51890482  0.82643875  0.03704355  1
  O  O40  1  0.04169344  0.17109780  0.23003962  1
  O  O41  1  0.54169344  0.82890220  0.76996038  1
  O  O42  1  0.54169344  0.32890220  0.73003962  1
  O  O43  1  0.04169344  0.67109780  0.26996038  1
  O  O44  1  0.70310471  0.22477541  0.28594745  1
  O  O45  1  0.20310471  0.77522459  0.71405255  1
  O  O46  1  0.20310471  0.27522459  0.78594745  1
  O  O47  1  0.70310471  0.72477541  0.21405255  1
  O  O48  1  0.39079674  0.11422531  0.36692795  1
  O  O49  1  0.89079674  0.88577469  0.63307205  1
  O  O50  1  0.89079674  0.38577469  0.86692795  1
  O  O51  1  0.39079674  0.61422531  0.13307205  1
  O  O52  1  0.97419629  0.39468024  0.33918292  1
  O  O53  1  0.47419629  0.60531976  0.66081708  1
  O  O54  1  0.47419629  0.10531976  0.83918292  1
  O  O55  1  0.97419629  0.89468024  0.16081708  1
  O  O56  1  0.93771836  0.17870988  0.45907128  1
  O  O57  1  0.43771836  0.82129012  0.54092872  1
  O  O58  1  0.43771836  0.32129012  0.95907128  1
  O  O59  1  0.93771836  0.67870988  0.04092872  1
