# generated using pymatgen
data_Nd12Ni6Sn
_symmetry_space_group_name_H-M   'P 1'
_cell_length_a   8.71674236
_cell_length_b   8.71674256
_cell_length_c   8.71674216
_cell_angle_alpha   109.47121971
_cell_angle_beta   109.47122018
_cell_angle_gamma   109.47122059
_symmetry_Int_Tables_number   1
_chemical_formula_structural   Nd12Ni6Sn
_chemical_formula_sum   'Nd12 Ni6 Sn1'
_cell_volume   509.84803037
_cell_formula_units_Z   1
loop_
 _symmetry_equiv_pos_site_id
 _symmetry_equiv_pos_as_xyz
  1  'x, y, z'
loop_
 _atom_site_type_symbol
 _atom_site_label
 _atom_site_symmetry_multiplicity
 _atom_site_fract_x
 _atom_site_fract_y
 _atom_site_fract_z
 _atom_site_occupancy
  Nd  Nd0  1  0.87831864  0.69326174  0.18505690  1
  Nd  Nd1  1  0.69326174  0.81494310  0.50820483  1
  Nd  Nd2  1  0.18505690  0.49179517  0.30673826  1
  Nd  Nd3  1  0.30673826  0.81494310  0.12168136  1
  Nd  Nd4  1  0.81494310  0.50820483  0.69326174  1
  Nd  Nd5  1  0.30673826  0.18505690  0.49179517  1
  Nd  Nd6  1  0.81494310  0.12168136  0.30673826  1
  Nd  Nd7  1  0.18505690  0.87831864  0.69326174  1
  Nd  Nd8  1  0.69326174  0.18505690  0.87831864  1
  Nd  Nd9  1  0.50820483  0.69326174  0.81494310  1
  Nd  Nd10  1  0.49179517  0.30673826  0.18505690  1
  Nd  Nd11  1  0.12168136  0.30673826  0.81494310  1
  Ni  Ni12  1  0.50000000  0.62211782  0.12211782  1
  Ni  Ni13  1  0.37788218  0.87788218  0.50000000  1
  Ni  Ni14  1  0.87788218  0.50000000  0.37788218  1
  Ni  Ni15  1  0.62211782  0.12211782  0.50000000  1
  Ni  Ni16  1  0.12211782  0.50000000  0.62211782  1
  Ni  Ni17  1  0.50000000  0.37788218  0.87788218  1
  Sn  Sn18  1  0.00000000  0.00000000  0.00000000  1
