# generated using pymatgen
data_FeH12Pt(ClO)6
_symmetry_space_group_name_H-M   'P 1'
_cell_length_a   7.16111553
_cell_length_b   7.17823594
_cell_length_c   7.21641994
_cell_angle_alpha   97.24054646
_cell_angle_beta   97.52731247
_cell_angle_gamma   97.23662330
_symmetry_Int_Tables_number   1
_chemical_formula_structural   FeH12Pt(ClO)6
_chemical_formula_sum   'Fe1 H12 Pt1 Cl6 O6'
_cell_volume   360.97612273
_cell_formula_units_Z   1
loop_
 _symmetry_equiv_pos_site_id
 _symmetry_equiv_pos_as_xyz
  1  'x, y, z'
loop_
 _atom_site_type_symbol
 _atom_site_label
 _atom_site_symmetry_multiplicity
 _atom_site_fract_x
 _atom_site_fract_y
 _atom_site_fract_z
 _atom_site_occupancy
  Fe  Fe0  1  0.49991824  0.50005266  0.50009257  1
  H  H1  1  0.27859233  0.21798371  0.63966554  1
  H  H2  1  0.44541543  0.33385857  0.12678736  1
  H  H3  1  0.36051909  0.72084051  0.78140734  1
  H  H4  1  0.55463439  0.66624110  0.87331696  1
  H  H5  1  0.78135753  0.36040657  0.72087012  1
  H  H6  1  0.66617787  0.87401493  0.55512191  1
  H  H7  1  0.87566695  0.55541145  0.66712524  1
  H  H8  1  0.63951668  0.27925777  0.21882854  1
  H  H9  1  0.33388337  0.12598567  0.44478362  1
  H  H10  1  0.12432671  0.44461115  0.33276464  1
  H  H11  1  0.21862878  0.63959876  0.27904191  1
  H  H12  1  0.72138142  0.78182976  0.36027684  1
  Pt  Pt13  1  0.00004061  0.99999173  0.99996814  1
  Cl  Cl14  1  0.71674803  0.06958868  0.83991514  1
  Cl  Cl15  1  0.92933221  0.16065819  0.28302650  1
  Cl  Cl16  1  0.07071156  0.83932367  0.71691635  1
  Cl  Cl17  1  0.83849865  0.71580899  0.06892549  1
  Cl  Cl18  1  0.28330054  0.93039185  0.16002114  1
  Cl  Cl19  1  0.16154867  0.28414805  0.93102352  1
  O  O20  1  0.22490065  0.55404935  0.37661002  1
  O  O21  1  0.77498652  0.44590699  0.62335555  1
  O  O22  1  0.62537262  0.77306750  0.44620418  1
  O  O23  1  0.44411416  0.62395029  0.77531692  1
  O  O24  1  0.55583624  0.37609581  0.22479032  1
  O  O25  1  0.37459077  0.22692630  0.55384415  1
