# generated using pymatgen
data_Ce3(CuSn)4
_symmetry_space_group_name_H-M   'P 1'
_cell_length_a   4.62554232
_cell_length_b   6.97087566
_cell_length_c   8.57483971
_cell_angle_alpha   113.99046977
_cell_angle_beta   105.64286245
_cell_angle_gamma   90.00338625
_symmetry_Int_Tables_number   1
_chemical_formula_structural   Ce3(CuSn)4
_chemical_formula_sum   'Ce3 Cu4 Sn4'
_cell_volume   241.34869628
_cell_formula_units_Z   1
loop_
 _symmetry_equiv_pos_site_id
 _symmetry_equiv_pos_as_xyz
  1  'x, y, z'
loop_
 _atom_site_type_symbol
 _atom_site_label
 _atom_site_symmetry_multiplicity
 _atom_site_fract_x
 _atom_site_fract_y
 _atom_site_fract_z
 _atom_site_occupancy
  Ce  Ce0  1  0.13305912  0.13301938  0.26603780  1
  Ce  Ce1  1  0.86694088  0.86698062  0.73396220  1
  Ce  Ce2  1  0.00000000  0.50000000  0.00000000  1
  Cu  Cu3  1  0.33241795  0.51566517  0.66464839  1
  Cu  Cu4  1  0.66758205  0.48433483  0.33535161  1
  Cu  Cu5  1  0.66759380  0.85096821  0.33535135  1
  Cu  Cu6  1  0.33240620  0.14903179  0.66464865  1
  Sn  Sn7  1  0.21635043  0.71644551  0.43297436  1
  Sn  Sn8  1  0.78364957  0.28355449  0.56702564  1
  Sn  Sn9  1  0.49987283  0.20237438  0.00001643  1
  Sn  Sn10  1  0.50012717  0.79762562  0.99998357  1
