# generated using pymatgen
data_K3Nd(PS4)2
_symmetry_space_group_name_H-M   'P 1'
_cell_length_a   9.24675633
_cell_length_b   9.66927577
_cell_length_c   17.24130160
_cell_angle_alpha   90.00000000
_cell_angle_beta   90.00000000
_cell_angle_gamma   90.76795481
_symmetry_Int_Tables_number   1
_chemical_formula_structural   K3Nd(PS4)2
_chemical_formula_sum   'K12 Nd4 P8 S32'
_cell_volume   1541.39660284
_cell_formula_units_Z   4
loop_
 _symmetry_equiv_pos_site_id
 _symmetry_equiv_pos_as_xyz
  1  'x, y, z'
loop_
 _atom_site_type_symbol
 _atom_site_label
 _atom_site_symmetry_multiplicity
 _atom_site_fract_x
 _atom_site_fract_y
 _atom_site_fract_z
 _atom_site_occupancy
  Nd  Nd0  1  0.77241002  0.97458348  0.98544868  1
  Nd  Nd1  1  0.22758998  0.52541652  0.48544868  1
  Nd  Nd2  1  0.22758998  0.02541652  0.01455132  1
  Nd  Nd3  1  0.77241002  0.47458348  0.51455132  1
  P  P4  1  0.99550224  0.74347892  0.40039720  1
  P  P5  1  0.00449776  0.75652108  0.90039720  1
  P  P6  1  0.00449776  0.25652108  0.59960280  1
  P  P7  1  0.99550224  0.24347892  0.09960280  1
  P  P8  1  0.52469277  0.71944971  0.59769389  1
  P  P9  1  0.47530723  0.78055029  0.09769389  1
  P  P10  1  0.47530723  0.28055029  0.40230611  1
  P  P11  1  0.52469277  0.21944971  0.90230611  1
  S  S12  1  0.88167312  0.86001842  0.32545659  1
  S  S13  1  0.11832688  0.63998158  0.82545659  1
  S  S14  1  0.11832688  0.13998158  0.67454341  1
  S  S15  1  0.88167312  0.36001842  0.17454341  1
  S  S16  1  0.78604423  0.72656943  0.88694498  1
  S  S17  1  0.21395577  0.77343057  0.38694498  1
  S  S18  1  0.21395577  0.27343057  0.11305502  1
  S  S19  1  0.78604423  0.22656943  0.61305502  1
  S  S20  1  0.94524979  0.75797787  0.51654649  1
  S  S21  1  0.05475021  0.74202213  0.01654649  1
  S  S22  1  0.05475021  0.24202213  0.48345351  1
  S  S23  1  0.94524979  0.25797787  0.98345351  1
  S  S24  1  0.96493325  0.53303674  0.38027646  1
  S  S25  1  0.03506675  0.96696326  0.88027646  1
  S  S26  1  0.03506675  0.46696326  0.61972354  1
  S  S27  1  0.96493325  0.03303674  0.11972354  1
  S  S28  1  0.56522259  0.91954697  0.62532495  1
  S  S29  1  0.43477741  0.58045303  0.12532495  1
  S  S30  1  0.43477741  0.08045303  0.37467505  1
  S  S31  1  0.56522259  0.41954697  0.87467505  1
  S  S32  1  0.66278450  0.59122661  0.65631049  1
  S  S33  1  0.33721550  0.90877339  0.15631049  1
  S  S34  1  0.33721550  0.40877339  0.34368951  1
  S  S35  1  0.66278450  0.09122661  0.84368951  1
  S  S36  1  0.31391374  0.67042706  0.62657843  1
  S  S37  1  0.68608626  0.82957294  0.12657843  1
  S  S38  1  0.68608626  0.32957294  0.37342157  1
  S  S39  1  0.31391374  0.17042706  0.87342157  1
  S  S40  1  0.45776416  0.82193242  0.97971893  1
  S  S41  1  0.54223584  0.67806758  0.47971893  1
  S  S42  1  0.54223584  0.17806758  0.02028107  1
  S  S43  1  0.45776416  0.32193242  0.52028107  1
  K  K44  1  0.87695411  0.87503937  0.70709805  1
  K  K45  1  0.12304589  0.62496063  0.20709805  1
  K  K46  1  0.12304589  0.12496063  0.29290195  1
  K  K47  1  0.87695411  0.37503937  0.79290195  1
  K  K48  1  0.38167574  0.87035911  0.78798920  1
  K  K49  1  0.61832426  0.62964089  0.28798920  1
  K  K50  1  0.61832426  0.12964089  0.21201080  1
  K  K51  1  0.38167574  0.37035911  0.71201080  1
  K  K52  1  0.26749367  0.98609904  0.53030659  1
  K  K53  1  0.73250633  0.51390096  0.03030659  1
  K  K54  1  0.73250633  0.01390096  0.46969341  1
  K  K55  1  0.26749367  0.48609904  0.96969341  1
