# generated using pymatgen
data_Eu2(Ga3Ir)3
_symmetry_space_group_name_H-M   'P 1'
_cell_length_a   7.61432454
_cell_length_b   7.61432501
_cell_length_c   9.77839241
_cell_angle_alpha   90.00000000
_cell_angle_beta   90.00000000
_cell_angle_gamma   119.49603079
_symmetry_Int_Tables_number   1
_chemical_formula_structural   Eu2(Ga3Ir)3
_chemical_formula_sum   'Eu4 Ga18 Ir6'
_cell_volume   493.45102090
_cell_formula_units_Z   2
loop_
 _symmetry_equiv_pos_site_id
 _symmetry_equiv_pos_as_xyz
  1  'x, y, z'
loop_
 _atom_site_type_symbol
 _atom_site_label
 _atom_site_symmetry_multiplicity
 _atom_site_fract_x
 _atom_site_fract_y
 _atom_site_fract_z
 _atom_site_occupancy
  Eu  Eu0  1  0.33055451  0.00281581  0.75000000  1
  Eu  Eu1  1  0.66944549  0.99718419  0.25000000  1
  Eu  Eu2  1  0.00281581  0.33055451  0.75000000  1
  Eu  Eu3  1  0.99718419  0.66944549  0.25000000  1
  Ir  Ir4  1  0.00000000  0.00000000  0.50000000  1
  Ir  Ir5  1  0.00000000  0.00000000  0.00000000  1
  Ir  Ir6  1  0.32959979  0.67040021  0.50000000  1
  Ir  Ir7  1  0.67040021  0.32959979  0.00000000  1
  Ir  Ir8  1  0.67040021  0.32959979  0.50000000  1
  Ir  Ir9  1  0.32959979  0.67040021  0.00000000  1
  Ga  Ga10  1  0.66565072  0.66565072  0.44207277  1
  Ga  Ga11  1  0.33434928  0.33434928  0.94207277  1
  Ga  Ga12  1  0.66565072  0.66565072  0.05792723  1
  Ga  Ga13  1  0.33434928  0.33434928  0.55792723  1
  Ga  Ga14  1  0.33478313  0.00189430  0.42551373  1
  Ga  Ga15  1  0.66521687  0.99810570  0.92551373  1
  Ga  Ga16  1  0.00189430  0.33478313  0.07448627  1
  Ga  Ga17  1  0.99810570  0.66521687  0.57448627  1
  Ga  Ga18  1  0.66521687  0.99810570  0.57448627  1
  Ga  Ga19  1  0.33478313  0.00189430  0.07448627  1
  Ga  Ga20  1  0.99810570  0.66521687  0.92551373  1
  Ga  Ga21  1  0.00189430  0.33478313  0.42551373  1
  Ga  Ga22  1  0.12961090  0.12961090  0.25000000  1
  Ga  Ga23  1  0.87038910  0.87038910  0.75000000  1
  Ga  Ga24  1  0.45585346  0.66331558  0.75000000  1
  Ga  Ga25  1  0.54414654  0.33668442  0.25000000  1
  Ga  Ga26  1  0.66331558  0.45585346  0.75000000  1
  Ga  Ga27  1  0.33668442  0.54414654  0.25000000  1
