# generated using pymatgen
data_Li3BiS3
_symmetry_space_group_name_H-M   'P 1'
_cell_length_a   6.01845053
_cell_length_b   16.14134387
_cell_length_c   5.87639548
_cell_angle_alpha   90.00000000
_cell_angle_beta   89.14665737
_cell_angle_gamma   90.00000000
_symmetry_Int_Tables_number   1
_chemical_formula_structural   Li3BiS3
_chemical_formula_sum   'Li12 Bi4 S12'
_cell_volume   570.80429316
_cell_formula_units_Z   4
loop_
 _symmetry_equiv_pos_site_id
 _symmetry_equiv_pos_as_xyz
  1  'x, y, z'
loop_
 _atom_site_type_symbol
 _atom_site_label
 _atom_site_symmetry_multiplicity
 _atom_site_fract_x
 _atom_site_fract_y
 _atom_site_fract_z
 _atom_site_occupancy
  Li  Li0  1  0.17617499  0.69171250  0.46486774  1
  Li  Li1  1  0.09250426  0.42929250  0.19973386  1
  Li  Li2  1  0.40749574  0.92929250  0.30026614  1
  Li  Li3  1  0.32382501  0.19171250  0.03513226  1
  Li  Li4  1  0.23204579  0.68860460  0.97390986  1
  Li  Li5  1  0.26795421  0.18860460  0.52609014  1
  Li  Li6  1  0.73204579  0.81139540  0.47390986  1
  Li  Li7  1  0.76795421  0.31139540  0.02609014  1
  Li  Li8  1  0.67617499  0.80828750  0.96486774  1
  Li  Li9  1  0.59250426  0.07070750  0.69973386  1
  Li  Li10  1  0.90749574  0.57070750  0.80026614  1
  Li  Li11  1  0.82382501  0.30828750  0.53513226  1
  Bi  Bi12  1  0.08717702  0.91185119  0.77563785  1
  Bi  Bi13  1  0.41282298  0.41185119  0.72436215  1
  Bi  Bi14  1  0.58717702  0.58814881  0.27563785  1
  Bi  Bi15  1  0.91282298  0.08814881  0.22436215  1
  S  S16  1  0.99316033  0.91048759  0.23096584  1
  S  S17  1  0.04167228  0.25383481  0.25150761  1
  S  S18  1  0.97782440  0.41808755  0.77117298  1
  S  S19  1  0.45832772  0.75383481  0.24849239  1
  S  S20  1  0.52217560  0.91808755  0.72882702  1
  S  S21  1  0.50683967  0.41048759  0.26903416  1
  S  S22  1  0.49316033  0.58951241  0.73096584  1
  S  S23  1  0.47782440  0.08191245  0.27117298  1
  S  S24  1  0.54167228  0.24616519  0.75150761  1
  S  S25  1  0.02217560  0.58191245  0.22882702  1
  S  S26  1  0.95832772  0.74616519  0.74849239  1
  S  S27  1  0.00683967  0.08951241  0.76903416  1
