# generated using pymatgen
data_NaGe2(PO4)3
_symmetry_space_group_name_H-M   'P 1'
_cell_length_a   8.68919276
_cell_length_b   8.68919253
_cell_length_c   8.68919213
_cell_angle_alpha   56.45788453
_cell_angle_beta   56.45788556
_cell_angle_gamma   56.45788688
_symmetry_Int_Tables_number   1
_chemical_formula_structural   NaGe2(PO4)3
_chemical_formula_sum   'Na2 Ge4 P6 O24'
_cell_volume   425.91144039
_cell_formula_units_Z   2
loop_
 _symmetry_equiv_pos_site_id
 _symmetry_equiv_pos_as_xyz
  1  'x, y, z'
loop_
 _atom_site_type_symbol
 _atom_site_label
 _atom_site_symmetry_multiplicity
 _atom_site_fract_x
 _atom_site_fract_y
 _atom_site_fract_z
 _atom_site_occupancy
  Na  Na0  1  0.00000000  0.00000000  0.00000000  1
  Na  Na1  1  0.50000000  0.50000000  0.50000000  1
  Ge  Ge2  1  0.35198875  0.35198875  0.35198875  1
  Ge  Ge3  1  0.64801125  0.64801125  0.64801125  1
  Ge  Ge4  1  0.14427387  0.14427387  0.14427387  1
  Ge  Ge5  1  0.85572613  0.85572613  0.85572613  1
  P  P6  1  0.46355154  0.03445789  0.75078397  1
  P  P7  1  0.75078397  0.46355154  0.03445789  1
  P  P8  1  0.03445789  0.75078397  0.46355154  1
  P  P9  1  0.53644846  0.96554211  0.24921603  1
  P  P10  1  0.24921603  0.53644846  0.96554211  1
  P  P11  1  0.96554211  0.24921603  0.53644846  1
  O  O12  1  0.47791606  0.19818435  0.54268330  1
  O  O13  1  0.54268330  0.47791606  0.19818435  1
  O  O14  1  0.19818435  0.54268330  0.47791606  1
  O  O15  1  0.52208394  0.80181565  0.45731670  1
  O  O16  1  0.45731670  0.52208394  0.80181565  1
  O  O17  1  0.80181565  0.45731670  0.52208394  1
  O  O18  1  0.25810840  0.10440712  0.90277802  1
  O  O19  1  0.90277802  0.25810840  0.10440712  1
  O  O20  1  0.10440712  0.90277802  0.25810840  1
  O  O21  1  0.74189160  0.89559288  0.09722198  1
  O  O22  1  0.09722198  0.74189160  0.89559288  1
  O  O23  1  0.89559288  0.09722198  0.74189160  1
  O  O24  1  0.47848816  0.84063415  0.76689538  1
  O  O25  1  0.76689538  0.47848816  0.84063415  1
  O  O26  1  0.84063415  0.76689538  0.47848816  1
  O  O27  1  0.52151184  0.15936585  0.23310462  1
  O  O28  1  0.23310462  0.52151184  0.15936585  1
  O  O29  1  0.15936585  0.23310462  0.52151184  1
  O  O30  1  0.62526654  0.00981395  0.79577319  1
  O  O31  1  0.79577319  0.62526654  0.00981395  1
  O  O32  1  0.00981395  0.79577319  0.62526654  1
  O  O33  1  0.37473346  0.99018605  0.20422681  1
  O  O34  1  0.20422681  0.37473346  0.99018605  1
  O  O35  1  0.99018605  0.20422681  0.37473346  1
