# generated using pymatgen
data_KNb2PS10
_symmetry_space_group_name_H-M   'P 1'
_cell_length_a   7.88311278
_cell_length_b   13.12532816
_cell_length_c   13.94504025
_cell_angle_alpha   90.00000000
_cell_angle_beta   90.00000000
_cell_angle_gamma   90.00000000
_symmetry_Int_Tables_number   1
_chemical_formula_structural   KNb2PS10
_chemical_formula_sum   'K4 Nb8 P4 S40'
_cell_volume   1442.87159052
_cell_formula_units_Z   4
loop_
 _symmetry_equiv_pos_site_id
 _symmetry_equiv_pos_as_xyz
  1  'x, y, z'
loop_
 _atom_site_type_symbol
 _atom_site_label
 _atom_site_symmetry_multiplicity
 _atom_site_fract_x
 _atom_site_fract_y
 _atom_site_fract_z
 _atom_site_occupancy
  Nb  Nb0  1  0.06933873  0.81353705  0.38733854  1
  Nb  Nb1  1  0.93066127  0.18646295  0.88733854  1
  Nb  Nb2  1  0.93066127  0.31353705  0.38733854  1
  Nb  Nb3  1  0.06933873  0.68646295  0.88733854  1
  Nb  Nb4  1  0.94869245  0.02399695  0.38650041  1
  Nb  Nb5  1  0.05130755  0.97600305  0.88650041  1
  Nb  Nb6  1  0.05130755  0.52399695  0.38650041  1
  Nb  Nb7  1  0.94869245  0.47600305  0.88650041  1
  S  S8  1  0.14003730  0.66648844  0.51269789  1
  S  S9  1  0.85996270  0.33351156  0.01269789  1
  S  S10  1  0.85996270  0.16648844  0.51269789  1
  S  S11  1  0.14003730  0.83351156  0.01269789  1
  S  S12  1  0.39663441  0.79273950  0.38016087  1
  S  S13  1  0.60336559  0.20726050  0.88016087  1
  S  S14  1  0.60336559  0.29273950  0.38016087  1
  S  S15  1  0.39663441  0.70726050  0.88016087  1
  S  S16  1  0.89893940  0.89839172  0.25516895  1
  S  S17  1  0.10106060  0.10160828  0.75516895  1
  S  S18  1  0.10106060  0.39839172  0.25516895  1
  S  S19  1  0.89893940  0.60160828  0.75516895  1
  S  S20  1  0.88661771  0.89074276  0.51439824  1
  S  S21  1  0.11338229  0.10925724  0.01439824  1
  S  S22  1  0.11338229  0.39074276  0.51439824  1
  S  S23  1  0.88661771  0.60925724  0.01439824  1
  S  S24  1  0.05024681  0.66891636  0.26223505  1
  S  S25  1  0.94975319  0.33108364  0.76223505  1
  S  S26  1  0.94975319  0.16891636  0.26223505  1
  S  S27  1  0.05024681  0.83108364  0.76223505  1
  S  S28  1  0.12800073  0.94807917  0.51739183  1
  S  S29  1  0.87199927  0.05192083  0.01739183  1
  S  S30  1  0.87199927  0.44807917  0.51739183  1
  S  S31  1  0.12800073  0.55192083  0.01739183  1
  S  S32  1  0.56952022  0.65082737  0.55875355  1
  S  S33  1  0.43047978  0.34917263  0.05875355  1
  S  S34  1  0.43047978  0.15082737  0.55875355  1
  S  S35  1  0.56952022  0.84917263  0.05875355  1
  S  S36  1  0.84655584  0.67376814  0.35389302  1
  S  S37  1  0.15344416  0.32623186  0.85389302  1
  S  S38  1  0.15344416  0.17376814  0.35389302  1
  S  S39  1  0.84655584  0.82623186  0.85389302  1
  S  S40  1  0.37966121  0.53255995  0.37239817  1
  S  S41  1  0.62033879  0.46744005  0.87239817  1
  S  S42  1  0.62033879  0.03255995  0.37239817  1
  S  S43  1  0.37966121  0.96744005  0.87239817  1
  S  S44  1  0.14410364  0.94410923  0.26377586  1
  S  S45  1  0.85589636  0.05589077  0.76377586  1
  S  S46  1  0.85589636  0.44410923  0.26377586  1
  S  S47  1  0.14410364  0.55589077  0.76377586  1
  K  K48  1  0.50227934  0.88152222  0.65160187  1
  K  K49  1  0.49772066  0.11847778  0.15160187  1
  K  K50  1  0.49772066  0.38152222  0.65160187  1
  K  K51  1  0.50227934  0.61847778  0.15160187  1
  P  P52  1  0.38947164  0.66033110  0.45953575  1
  P  P53  1  0.61052836  0.33966890  0.95953575  1
  P  P54  1  0.61052836  0.16033110  0.45953575  1
  P  P55  1  0.38947164  0.83966890  0.95953575  1
