# generated using pymatgen
data_TbMg2Cu9
_symmetry_space_group_name_H-M   'P 1'
_cell_length_a   5.00618513
_cell_length_b   5.00618483
_cell_length_c   16.15390783
_cell_angle_alpha   90.00000000
_cell_angle_beta   90.00000000
_cell_angle_gamma   120.00000189
_symmetry_Int_Tables_number   1
_chemical_formula_structural   TbMg2Cu9
_chemical_formula_sum   'Tb2 Mg4 Cu18'
_cell_volume   350.60815238
_cell_formula_units_Z   2
loop_
 _symmetry_equiv_pos_site_id
 _symmetry_equiv_pos_as_xyz
  1  'x, y, z'
loop_
 _atom_site_type_symbol
 _atom_site_label
 _atom_site_symmetry_multiplicity
 _atom_site_fract_x
 _atom_site_fract_y
 _atom_site_fract_z
 _atom_site_occupancy
  Cu  Cu0  1  0.00000000  0.00000000  0.00000000  1
  Cu  Cu1  1  0.00000000  0.00000000  0.50000000  1
  Cu  Cu2  1  0.00000000  0.00000000  0.25000000  1
  Cu  Cu3  1  0.00000000  0.00000000  0.75000000  1
  Cu  Cu4  1  0.33333300  0.66666700  0.25000000  1
  Cu  Cu5  1  0.66666700  0.33333300  0.75000000  1
  Tb  Tb6  1  0.33333300  0.66666700  0.75000000  1
  Tb  Tb7  1  0.66666700  0.33333300  0.25000000  1
  Mg  Mg8  1  0.33333300  0.66666700  0.53212813  1
  Mg  Mg9  1  0.66666700  0.33333300  0.03212813  1
  Mg  Mg10  1  0.66666700  0.33333300  0.46787187  1
  Mg  Mg11  1  0.33333300  0.66666700  0.96787187  1
  Cu  Cu12  1  0.16790841  0.33581683  0.12319257  1
  Cu  Cu13  1  0.83209159  0.16790841  0.62319257  1
  Cu  Cu14  1  0.33581683  0.16790841  0.62319257  1
  Cu  Cu15  1  0.66418317  0.83209159  0.12319257  1
  Cu  Cu16  1  0.16790841  0.83209159  0.12319257  1
  Cu  Cu17  1  0.83209159  0.66418317  0.87680743  1
  Cu  Cu18  1  0.83209159  0.16790841  0.87680743  1
  Cu  Cu19  1  0.83209159  0.66418317  0.62319257  1
  Cu  Cu20  1  0.33581683  0.16790841  0.87680743  1
  Cu  Cu21  1  0.66418317  0.83209159  0.37680743  1
  Cu  Cu22  1  0.16790841  0.33581683  0.37680743  1
  Cu  Cu23  1  0.16790841  0.83209159  0.37680743  1
