# generated using pymatgen
data_Tl2TeO3
_symmetry_space_group_name_H-M   'P 1'
_cell_length_a   5.44088963
_cell_length_b   11.47296485
_cell_length_c   17.07386435
_cell_angle_alpha   90.00000000
_cell_angle_beta   90.00000000
_cell_angle_gamma   90.00000000
_symmetry_Int_Tables_number   1
_chemical_formula_structural   Tl2TeO3
_chemical_formula_sum   'Tl16 Te8 O24'
_cell_volume   1065.80414745
_cell_formula_units_Z   8
loop_
 _symmetry_equiv_pos_site_id
 _symmetry_equiv_pos_as_xyz
  1  'x, y, z'
loop_
 _atom_site_type_symbol
 _atom_site_label
 _atom_site_symmetry_multiplicity
 _atom_site_fract_x
 _atom_site_fract_y
 _atom_site_fract_z
 _atom_site_occupancy
  Tl  Tl0  1  0.25126045  0.88349081  0.67058124  1
  Tl  Tl1  1  0.25126045  0.61650919  0.82941876  1
  Tl  Tl2  1  0.74873955  0.88349081  0.82941876  1
  Tl  Tl3  1  0.74873955  0.61650919  0.67058124  1
  Tl  Tl4  1  0.74873955  0.11650919  0.32941876  1
  Tl  Tl5  1  0.74873955  0.38349081  0.17058124  1
  Tl  Tl6  1  0.25126045  0.11650919  0.17058124  1
  Tl  Tl7  1  0.25126045  0.38349081  0.32941876  1
  Tl  Tl8  1  0.75270529  0.86580841  0.50091905  1
  Tl  Tl9  1  0.75270529  0.63419159  0.99908095  1
  Tl  Tl10  1  0.24729471  0.86580841  0.99908095  1
  Tl  Tl11  1  0.24729471  0.63419159  0.50091905  1
  Tl  Tl12  1  0.24729471  0.13419159  0.49908095  1
  Tl  Tl13  1  0.24729471  0.36580841  0.00091905  1
  Tl  Tl14  1  0.75270529  0.13419159  0.00091905  1
  Tl  Tl15  1  0.75270529  0.36580841  0.49908095  1
  Te  Te16  1  0.23099350  0.89035037  0.33876899  1
  Te  Te17  1  0.23099350  0.60964963  0.16123101  1
  Te  Te18  1  0.76900650  0.89035037  0.16123101  1
  Te  Te19  1  0.76900650  0.60964963  0.33876899  1
  Te  Te20  1  0.76900650  0.10964963  0.66123101  1
  Te  Te21  1  0.76900650  0.39035037  0.83876899  1
  Te  Te22  1  0.23099350  0.10964963  0.83876899  1
  Te  Te23  1  0.23099350  0.39035037  0.66123101  1
  O  O24  1  0.71550136  0.94992913  0.68679541  1
  O  O25  1  0.71550136  0.55007087  0.81320459  1
  O  O26  1  0.28449864  0.94992913  0.81320459  1
  O  O27  1  0.28449864  0.55007087  0.68679541  1
  O  O28  1  0.28449864  0.05007087  0.31320459  1
  O  O29  1  0.28449864  0.44992913  0.18679541  1
  O  O30  1  0.71550136  0.05007087  0.18679541  1
  O  O31  1  0.71550136  0.44992913  0.31320459  1
  O  O32  1  0.68924610  0.10204074  0.55307372  1
  O  O33  1  0.68924610  0.39795926  0.94692628  1
  O  O34  1  0.31075390  0.10204074  0.94692628  1
  O  O35  1  0.31075390  0.39795926  0.55307372  1
  O  O36  1  0.31075390  0.89795926  0.44692628  1
  O  O37  1  0.31075390  0.60204074  0.05307372  1
  O  O38  1  0.68924610  0.89795926  0.05307372  1
  O  O39  1  0.68924610  0.60204074  0.44692628  1
  O  O40  1  0.11796183  0.10342216  0.65304962  1
  O  O41  1  0.11796183  0.39657784  0.84695038  1
  O  O42  1  0.88203817  0.10342216  0.84695038  1
  O  O43  1  0.88203817  0.39657784  0.65304962  1
  O  O44  1  0.88203817  0.89657784  0.34695038  1
  O  O45  1  0.88203817  0.60342216  0.15304962  1
  O  O46  1  0.11796183  0.89657784  0.15304962  1
  O  O47  1  0.11796183  0.60342216  0.34695038  1
