# generated using pymatgen
data_SbOF
_symmetry_space_group_name_H-M   'P 1'
_cell_length_a   6.76915945
_cell_length_b   8.26716063
_cell_length_c   3.45908251
_cell_angle_alpha   90.00000000
_cell_angle_beta   90.00000000
_cell_angle_gamma   90.00000000
_symmetry_Int_Tables_number   1
_chemical_formula_structural   SbOF
_chemical_formula_sum   'Sb4 O4 F4'
_cell_volume   193.57623629
_cell_formula_units_Z   4
loop_
 _symmetry_equiv_pos_site_id
 _symmetry_equiv_pos_as_xyz
  1  'x, y, z'
loop_
 _atom_site_type_symbol
 _atom_site_label
 _atom_site_symmetry_multiplicity
 _atom_site_fract_x
 _atom_site_fract_y
 _atom_site_fract_z
 _atom_site_occupancy
  Sb  Sb0  1  0.19211901  0.92515148  0.75000000  1
  Sb  Sb1  1  0.30788099  0.42515148  0.25000000  1
  Sb  Sb2  1  0.69211901  0.57484852  0.75000000  1
  Sb  Sb3  1  0.80788099  0.07484852  0.25000000  1
  O  O4  1  0.00323133  0.11995669  0.75000000  1
  O  O5  1  0.49676867  0.61995669  0.25000000  1
  O  O6  1  0.50323133  0.38004331  0.75000000  1
  O  O7  1  0.99676867  0.88004331  0.25000000  1
  F  F8  1  0.17024529  0.57357092  0.75000000  1
  F  F9  1  0.32975471  0.07357092  0.25000000  1
  F  F10  1  0.67024529  0.92642908  0.75000000  1
  F  F11  1  0.82975471  0.42642908  0.25000000  1
