# generated using pymatgen
data_Ce3S3N
_symmetry_space_group_name_H-M   'P 1'
_cell_length_a   3.99867117
_cell_length_b   11.91841309
_cell_length_c   12.82392398
_cell_angle_alpha   90.00000000
_cell_angle_beta   90.00000000
_cell_angle_gamma   90.00000000
_symmetry_Int_Tables_number   1
_chemical_formula_structural   Ce3S3N
_chemical_formula_sum   'Ce12 S12 N4'
_cell_volume   611.16019424
_cell_formula_units_Z   4
loop_
 _symmetry_equiv_pos_site_id
 _symmetry_equiv_pos_as_xyz
  1  'x, y, z'
loop_
 _atom_site_type_symbol
 _atom_site_label
 _atom_site_symmetry_multiplicity
 _atom_site_fract_x
 _atom_site_fract_y
 _atom_site_fract_z
 _atom_site_occupancy
  Ce  Ce0  1  0.75000000  0.90701939  0.37752155  1
  Ce  Ce1  1  0.25000000  0.09298061  0.62247845  1
  Ce  Ce2  1  0.75000000  0.40701939  0.12247845  1
  Ce  Ce3  1  0.25000000  0.59298061  0.87752155  1
  Ce  Ce4  1  0.75000000  0.26637348  0.36913619  1
  Ce  Ce5  1  0.25000000  0.73362652  0.63086381  1
  Ce  Ce6  1  0.75000000  0.76637348  0.13086381  1
  Ce  Ce7  1  0.25000000  0.23362652  0.86913619  1
  Ce  Ce8  1  0.75000000  0.46403205  0.65194180  1
  Ce  Ce9  1  0.25000000  0.53596795  0.34805820  1
  Ce  Ce10  1  0.75000000  0.96403205  0.84805820  1
  Ce  Ce11  1  0.25000000  0.03596795  0.15194180  1
  N  N12  1  0.75000000  0.94795157  0.20098986  1
  N  N13  1  0.25000000  0.05204843  0.79901014  1
  N  N14  1  0.75000000  0.44795157  0.29901014  1
  N  N15  1  0.25000000  0.55204843  0.70098986  1
  S  S16  1  0.75000000  0.14267273  0.00433743  1
  S  S17  1  0.25000000  0.85732727  0.99566257  1
  S  S18  1  0.75000000  0.64267273  0.49566257  1
  S  S19  1  0.25000000  0.35732727  0.50433743  1
  S  S20  1  0.75000000  0.92405027  0.60924735  1
  S  S21  1  0.25000000  0.07594973  0.39075265  1
  S  S22  1  0.75000000  0.42405027  0.89075265  1
  S  S23  1  0.25000000  0.57594973  0.10924735  1
  S  S24  1  0.75000000  0.23250654  0.70648604  1
  S  S25  1  0.25000000  0.76749346  0.29351396  1
  S  S26  1  0.75000000  0.73250654  0.79351396  1
  S  S27  1  0.25000000  0.26749346  0.20648604  1
