# generated using pymatgen
data_Cs2Pd(IBr2)2
_symmetry_space_group_name_H-M   'P 1'
_cell_length_a   7.66044624
_cell_length_b   7.66044656
_cell_length_c   7.66044702
_cell_angle_alpha   106.82501368
_cell_angle_beta   110.81030604
_cell_angle_gamma   110.81031195
_symmetry_Int_Tables_number   1
_chemical_formula_structural   Cs2Pd(IBr2)2
_chemical_formula_sum   'Cs2 Pd1 I2 Br4'
_cell_volume   345.50082124
_cell_formula_units_Z   1
loop_
 _symmetry_equiv_pos_site_id
 _symmetry_equiv_pos_as_xyz
  1  'x, y, z'
loop_
 _atom_site_type_symbol
 _atom_site_label
 _atom_site_symmetry_multiplicity
 _atom_site_fract_x
 _atom_site_fract_y
 _atom_site_fract_z
 _atom_site_occupancy
  Pd  Pd0  1  0.00000000  0.00000000  0.00000000  1
  Cs  Cs1  1  0.50000000  0.75000000  0.25000000  1
  Cs  Cs2  1  0.50000000  0.25000000  0.75000000  1
  Br  Br3  1  0.40362406  0.20181203  0.20181203  1
  Br  Br4  1  1.00000000  0.20181203  0.79818797  1
  Br  Br5  1  0.00000000  0.79818797  0.20181203  1
  Br  Br6  1  0.59637594  0.79818797  0.79818797  1
  I  I7  1  1.00000000  0.34238656  0.34238656  1
  I  I8  1  0.00000000  0.65761344  0.65761344  1
