# generated using pymatgen
data_Dy12(MnC3)5
_symmetry_space_group_name_H-M   'P 1'
_cell_length_a   10.46044644
_cell_length_b   10.46044651
_cell_length_c   5.05489051
_cell_angle_alpha   90.00000000
_cell_angle_beta   90.00000000
_cell_angle_gamma   119.99999979
_symmetry_Int_Tables_number   1
_chemical_formula_structural   Dy12(MnC3)5
_chemical_formula_sum   'Dy12 Mn5 C15'
_cell_volume   479.00806849
_cell_formula_units_Z   1
loop_
 _symmetry_equiv_pos_site_id
 _symmetry_equiv_pos_as_xyz
  1  'x, y, z'
loop_
 _atom_site_type_symbol
 _atom_site_label
 _atom_site_symmetry_multiplicity
 _atom_site_fract_x
 _atom_site_fract_y
 _atom_site_fract_z
 _atom_site_occupancy
  Dy  Dy0  1  0.26907507  0.45534434  0.00000000  1
  Dy  Dy1  1  0.18626927  0.73092493  0.00000000  1
  Dy  Dy2  1  0.54465566  0.81373073  0.00000000  1
  Dy  Dy3  1  0.81373073  0.54465566  0.00000000  1
  Dy  Dy4  1  0.73092493  0.18626927  0.00000000  1
  Dy  Dy5  1  0.45534434  0.26907507  0.00000000  1
  Dy  Dy6  1  0.43053038  0.00000000  0.50000000  1
  Dy  Dy7  1  0.56946962  0.56946962  0.50000000  1
  Dy  Dy8  1  0.00000000  0.43053038  0.50000000  1
  Dy  Dy9  1  0.79408280  0.00000000  0.50000000  1
  Dy  Dy10  1  0.20591720  0.20591720  0.50000000  1
  Dy  Dy11  1  0.00000000  0.79408280  0.50000000  1
  Mn  Mn12  1  0.15359729  0.00000000  0.00000000  1
  Mn  Mn13  1  0.84640271  0.84640271  0.00000000  1
  Mn  Mn14  1  1.00000000  0.15359729  0.00000000  1
  Mn  Mn15  1  0.33333300  0.66666700  0.50000000  1
  Mn  Mn16  1  0.66666700  0.33333300  0.50000000  1
  C  C17  1  0.28232695  0.47635448  0.50000000  1
  C  C18  1  0.19402753  0.71767305  0.50000000  1
  C  C19  1  0.52364552  0.80597247  0.50000000  1
  C  C20  1  0.80597247  0.52364552  0.50000000  1
  C  C21  1  0.71767305  0.19402753  0.50000000  1
  C  C22  1  0.47635448  0.28232695  0.50000000  1
  C  C23  1  0.32493261  0.00000000  0.00000000  1
  C  C24  1  0.67506739  0.67506739  0.00000000  1
  C  C25  1  1.00000000  0.32493261  0.00000000  1
  C  C26  1  0.45459767  0.00000000  0.00000000  1
  C  C27  1  0.54540233  0.54540233  0.00000000  1
  C  C28  1  0.00000000  0.45459767  0.00000000  1
  C  C29  1  0.79907593  0.00000000  0.00000000  1
  C  C30  1  0.20092407  0.20092407  0.00000000  1
  C  C31  1  0.00000000  0.79907593  0.00000000  1
