# generated using pymatgen
data_Pr8Sb2S15
_symmetry_space_group_name_H-M   'P 1'
_cell_length_a   15.01010129
_cell_length_b   15.01010166
_cell_length_c   15.01010106
_cell_angle_alpha   96.40034749
_cell_angle_beta   116.37616411
_cell_angle_gamma   116.37616452
_symmetry_Int_Tables_number   1
_chemical_formula_structural   Pr8Sb2S15
_chemical_formula_sum   'Pr32 Sb8 S60'
_cell_volume   2505.36149354
_cell_formula_units_Z   4
loop_
 _symmetry_equiv_pos_site_id
 _symmetry_equiv_pos_as_xyz
  1  'x, y, z'
loop_
 _atom_site_type_symbol
 _atom_site_label
 _atom_site_symmetry_multiplicity
 _atom_site_fract_x
 _atom_site_fract_y
 _atom_site_fract_z
 _atom_site_occupancy
  Pr  Pr0  1  0.79291460  0.39920982  0.89233299  1
  Pr  Pr1  1  0.00687683  0.35629522  0.64920982  1
  Pr  Pr2  1  0.50687683  0.89920982  0.10629522  1
  Pr  Pr3  1  0.67315119  0.21768479  0.58379252  1
  Pr  Pr4  1  0.29291460  0.14233299  0.14920982  1
  Pr  Pr5  1  0.49312317  0.59941839  0.39233299  1
  Pr  Pr6  1  0.86610773  0.33379252  0.16064132  1
  Pr  Pr7  1  0.42975321  0.31691169  0.47203560  1
  Pr  Pr8  1  0.36977685  0.95080392  0.28069619  1
  Pr  Pr9  1  0.63389227  0.71768479  0.04453359  1
  Pr  Pr10  1  0.36610773  0.41064132  0.08379252  1
  Pr  Pr11  1  0.07024679  0.13715848  0.79228238  1
  Pr  Pr12  1  0.13389227  0.29453359  0.46768479  1
  Pr  Pr13  1  0.84487609  0.81691169  0.38715848  1
  Pr  Pr14  1  0.57024679  0.04228238  0.88715848  1
  Pr  Pr15  1  0.65512391  0.22203560  0.29228238  1
  Pr  Pr16  1  0.32684881  0.91064132  0.54453359  1
  Pr  Pr17  1  0.32989228  0.41091934  0.78069619  1
  Pr  Pr18  1  0.70708540  0.85629522  0.84941839  1
  Pr  Pr19  1  0.86977685  0.53069619  0.70080392  1
  Pr  Pr20  1  0.17315119  0.83379252  0.96768479  1
  Pr  Pr21  1  0.34487609  0.63715848  0.56691169  1
  Pr  Pr22  1  0.20708540  0.09941839  0.60629522  1
  Pr  Pr23  1  0.17010772  0.33102706  0.20080392  1
  Pr  Pr24  1  0.99312317  0.64233299  0.34941839  1
  Pr  Pr25  1  0.92975321  0.72203560  0.06691169  1
  Pr  Pr26  1  0.63022315  0.91091934  0.58102706  1
  Pr  Pr27  1  0.82989228  0.03069619  0.16091934  1
  Pr  Pr28  1  0.82684881  0.79453359  0.66064132  1
  Pr  Pr29  1  0.15512391  0.54228238  0.97203560  1
  Pr  Pr30  1  0.67010772  0.45080392  0.08102706  1
  Pr  Pr31  1  0.13022315  0.83102706  0.66091934  1
  Sb  Sb32  1  0.11312637  0.99396348  0.31405786  1
  Sb  Sb33  1  0.17990562  0.63083712  0.24396348  1
  Sb  Sb34  1  0.38687363  0.13083712  0.95093150  1
  Sb  Sb35  1  0.61312637  0.56405786  0.74396348  1
  Sb  Sb36  1  0.67990562  0.49396348  0.38083712  1
  Sb  Sb37  1  0.88687363  0.20093150  0.88083712  1
  Sb  Sb38  1  0.82009438  0.06405786  0.45093150  1
  Sb  Sb39  1  0.32009438  0.70093150  0.81405786  1
  S  S40  1  0.64687663  0.37298385  0.67216371  1
  S  S41  1  0.01262583  0.05118187  0.38316310  1
  S  S42  1  0.85048179  0.87062861  0.06659399  1
  S  S43  1  0.08723135  0.87038292  0.46294726  1
  S  S44  1  0.79917986  0.42216371  0.27528708  1
  S  S45  1  0.20082014  0.47610722  0.62298385  1
  S  S46  1  0.81618884  0.73272077  0.84175290  1
  S  S47  1  0.88657442  0.66091305  0.46897392  1
  S  S48  1  0.59256434  0.87571591  0.96294726  1
  S  S49  1  0.29917986  0.52528708  0.17216371  1
  S  S50  1  0.32294213  0.44889611  0.43898873  1
  S  S51  1  0.19596538  0.71611220  0.56659399  1
  S  S52  1  0.68381116  0.16653193  0.77556406  1
  S  S53  1  0.89096787  0.23272077  0.41653193  1
  S  S54  1  0.82294213  0.68898873  0.19889611  1
  S  S55  1  0.83198123  0.13316310  0.62053727  1
  S  S56  1  0.35312337  0.02528708  0.72610722  1
  S  S57  1  0.10903213  0.52556406  0.34175290  1
  S  S58  1  0.51262583  0.63316310  0.80118187  1
  S  S59  1  0.48737417  0.28855604  0.12053727  1
  S  S60  1  0.49009263  0.18898873  0.36604661  1
  S  S61  1  0.14687663  0.92216371  0.12298385  1
  S  S62  1  0.39096787  0.66653193  0.98272077  1
  S  S63  1  0.80806087  0.08239949  0.96897392  1
  S  S64  1  0.00000000  0.74946358  0.74946358  1
  S  S65  1  0.19193913  0.16091305  0.27433862  1
  S  S66  1  0.66801877  0.55118187  0.53855604  1
  S  S67  1  0.16801877  0.78855604  0.30118187  1
  S  S68  1  0.30403462  0.77014682  0.12062861  1
  S  S69  1  0.50990737  0.87595398  0.69889611  1
  S  S70  1  0.38657442  0.71897392  0.41091305  1
  S  S71  1  0.61342558  0.02433862  0.33239949  1
  S  S72  1  0.31618884  0.09175290  0.48272077  1
  S  S73  1  0.64951821  0.27014682  0.96611220  1
  S  S74  1  0.09256434  0.21294726  0.62571591  1
  S  S75  1  0.35048179  0.31659399  0.62062861  1
  S  S76  1  0.70082014  0.87298385  0.22610722  1
  S  S77  1  0.30806087  0.21897392  0.83239949  1
  S  S78  1  0.40743566  0.37038292  0.28315157  1
  S  S79  1  0.50000000  0.49946358  -0.00053642  1
  S  S80  1  0.00990737  0.94889611  0.62595398  1
  S  S81  1  0.50000000  -0.00053642  0.49946358  1
  S  S82  1  0.11342558  0.58239949  0.77433862  1
  S  S83  1  0.60903213  0.59175290  0.27556406  1
  S  S84  1  0.69596538  0.81659399  0.46611220  1
  S  S85  1  0.41276865  0.03315157  0.12571591  1
  S  S86  1  0.91276865  0.37571591  0.78315157  1
  S  S87  1  0.90743566  0.53315157  0.12038292  1
  S  S88  1  0.18381116  0.02556406  0.91653193  1
  S  S89  1  0.58723135  0.71294726  0.62038292  1
  S  S90  1  0.85312337  0.97610722  0.77528708  1
  S  S91  1  0.14951821  0.21611220  0.02014682  1
  S  S92  1  0.17705787  0.37595398  0.86604661  1
  S  S93  1  0.98737417  0.37053727  0.03855604  1
  S  S94  1  0.99009263  0.61604661  0.93898873  1
  S  S95  1  0.80403462  0.37062861  0.52014682  1
  S  S96  1  0.00000000  0.24946358  0.24946358  1
  S  S97  1  0.33198123  0.87053727  0.88316310  1
  S  S98  1  0.67705787  0.11604661  0.12595398  1
  S  S99  1  0.69193913  0.52433862  0.91091305  1
