# generated using pymatgen
data_Ba6Ru2Pt(ClO6)2
_symmetry_space_group_name_H-M   'P 1'
_cell_length_a   5.90743814
_cell_length_b   5.90743772
_cell_length_c   15.28070023
_cell_angle_alpha   90.00000000
_cell_angle_beta   90.00000000
_cell_angle_gamma   120.00000238
_symmetry_Int_Tables_number   1
_chemical_formula_structural   Ba6Ru2Pt(ClO6)2
_chemical_formula_sum   'Ba6 Ru2 Pt1 Cl2 O12'
_cell_volume   461.81944099
_cell_formula_units_Z   1
loop_
 _symmetry_equiv_pos_site_id
 _symmetry_equiv_pos_as_xyz
  1  'x, y, z'
loop_
 _atom_site_type_symbol
 _atom_site_label
 _atom_site_symmetry_multiplicity
 _atom_site_fract_x
 _atom_site_fract_y
 _atom_site_fract_z
 _atom_site_occupancy
  Ba  Ba0  1  0.66666700  0.33333300  0.21414539  1
  Ba  Ba1  1  0.33333300  0.66666700  0.08104400  1
  Ba  Ba2  1  0.66666700  0.33333300  0.63435975  1
  Ba  Ba3  1  0.66666700  0.33333300  0.91895600  1
  Ba  Ba4  1  0.33333300  0.66666700  0.36564025  1
  Ba  Ba5  1  0.33333300  0.66666700  0.78585461  1
  Ru  Ru6  1  0.00000000  0.00000000  0.81727829  1
  Ru  Ru7  1  0.00000000  0.00000000  0.18272171  1
  Pt  Pt8  1  0.00000000  0.00000000  0.00000000  1
  Cl  Cl9  1  0.66666700  0.33333300  0.42224740  1
  Cl  Cl10  1  0.33333300  0.66666700  0.57775260  1
  O  O11  1  0.30321138  0.15160569  0.08710245  1
  O  O12  1  0.69678862  0.84839431  0.91289755  1
  O  O13  1  0.16087735  0.83912265  0.24399159  1
  O  O14  1  0.67824530  0.83912265  0.24399159  1
  O  O15  1  0.83912265  0.67824530  0.75600841  1
  O  O16  1  0.32175470  0.16087735  0.75600841  1
  O  O17  1  0.16087735  0.32175470  0.24399159  1
  O  O18  1  0.84839431  0.69678862  0.08710245  1
  O  O19  1  0.15160569  0.30321138  0.91289755  1
  O  O20  1  0.83912265  0.16087735  0.75600841  1
  O  O21  1  0.84839431  0.15160569  0.08710245  1
  O  O22  1  0.15160569  0.84839431  0.91289755  1
