# generated using pymatgen
data_Na2Zn2O3
_symmetry_space_group_name_H-M   'P 1'
_cell_length_a   6.26362749
_cell_length_b   6.26362749
_cell_length_c   9.54417291
_cell_angle_alpha   90.00000000
_cell_angle_beta   90.00000000
_cell_angle_gamma   90.00000000
_symmetry_Int_Tables_number   1
_chemical_formula_structural   Na2Zn2O3
_chemical_formula_sum   'Na8 Zn8 O12'
_cell_volume   374.44681574
_cell_formula_units_Z   4
loop_
 _symmetry_equiv_pos_site_id
 _symmetry_equiv_pos_as_xyz
  1  'x, y, z'
loop_
 _atom_site_type_symbol
 _atom_site_label
 _atom_site_symmetry_multiplicity
 _atom_site_fract_x
 _atom_site_fract_y
 _atom_site_fract_z
 _atom_site_occupancy
  Na  Na0  1  0.74632159  0.53381476  0.64471127  1
  Na  Na1  1  0.96618524  0.24632159  0.39471127  1
  Na  Na2  1  0.46618524  0.25367841  0.85528873  1
  Na  Na3  1  0.25367841  0.46618524  0.14471127  1
  Na  Na4  1  0.03381476  0.75367841  0.89471127  1
  Na  Na5  1  0.75367841  0.03381476  0.10528873  1
  Na  Na6  1  0.53381476  0.74632159  0.35528873  1
  Na  Na7  1  0.24632159  0.96618524  0.60528873  1
  Zn  Zn8  1  0.25684789  0.45570957  0.61484799  1
  Zn  Zn9  1  0.04429043  0.75684789  0.36484799  1
  Zn  Zn10  1  0.45570957  0.25684789  0.38515201  1
  Zn  Zn11  1  0.75684789  0.04429043  0.63515201  1
  Zn  Zn12  1  0.24315211  0.95570957  0.13515201  1
  Zn  Zn13  1  0.54429043  0.74315211  0.88515201  1
  Zn  Zn14  1  0.95570957  0.24315211  0.86484799  1
  Zn  Zn15  1  0.74315211  0.54429043  0.11484799  1
  O  O16  1  0.32308774  0.67691226  0.75000000  1
  O  O17  1  0.24172345  0.51437434  0.40826629  1
  O  O18  1  0.48562566  0.75827655  0.09173371  1
  O  O19  1  0.75827655  0.48562566  0.90826629  1
  O  O20  1  0.67691226  0.32308774  0.25000000  1
  O  O21  1  0.98562566  0.74172345  0.15826629  1
  O  O22  1  0.82308774  0.82308774  0.50000000  1
  O  O23  1  0.51437434  0.24172345  0.59173371  1
  O  O24  1  0.01437434  0.25827655  0.65826629  1
  O  O25  1  0.25827655  0.01437434  0.34173371  1
  O  O26  1  0.74172345  0.98562566  0.84173371  1
  O  O27  1  0.17691226  0.17691226  0.00000000  1
