# generated using pymatgen
data_CsK2CoO2
_symmetry_space_group_name_H-M   'P 1'
_cell_length_a   5.34052041
_cell_length_b   5.34053909
_cell_length_c   6.24401024
_cell_angle_alpha   115.30557882
_cell_angle_beta   115.30641116
_cell_angle_gamma   90.03244847
_symmetry_Int_Tables_number   1
_chemical_formula_structural   CsK2CoO2
_chemical_formula_sum   'Cs1 K2 Co1 O2'
_cell_volume   141.84064539
_cell_formula_units_Z   1
loop_
 _symmetry_equiv_pos_site_id
 _symmetry_equiv_pos_as_xyz
  1  'x, y, z'
loop_
 _atom_site_type_symbol
 _atom_site_label
 _atom_site_symmetry_multiplicity
 _atom_site_fract_x
 _atom_site_fract_y
 _atom_site_fract_z
 _atom_site_occupancy
  Cs  Cs0  1  0.00000000  0.00000000  0.00000000  1
  K  K1  1  0.25000111  0.74999794  0.49999798  1
  K  K2  1  0.74999889  0.25000206  0.50000202  1
  Co  Co3  1  0.50000000  0.50000000  0.00000100  1
  O  O4  1  0.32189814  0.32188693  0.64381136  1
  O  O5  1  0.67810186  0.67811307  0.35618864  1
