# generated using pymatgen
data_Te2Pb3(ClO3)2
_symmetry_space_group_name_H-M   'P 1'
_cell_length_a   5.70661042
_cell_length_b   8.85999343
_cell_length_c   11.10909948
_cell_angle_alpha   103.13859272
_cell_angle_beta   90.00000000
_cell_angle_gamma   108.78656529
_symmetry_Int_Tables_number   1
_chemical_formula_structural   Te2Pb3(ClO3)2
_chemical_formula_sum   'Te4 Pb6 Cl4 O12'
_cell_volume   516.20352417
_cell_formula_units_Z   2
loop_
 _symmetry_equiv_pos_site_id
 _symmetry_equiv_pos_as_xyz
  1  'x, y, z'
loop_
 _atom_site_type_symbol
 _atom_site_label
 _atom_site_symmetry_multiplicity
 _atom_site_fract_x
 _atom_site_fract_y
 _atom_site_fract_z
 _atom_site_occupancy
  Te  Te0  1  0.60261064  0.20522127  0.05235298  1
  Te  Te1  1  0.12830691  0.25661381  0.59313879  1
  Te  Te2  1  0.87169309  0.74338619  0.40686121  1
  Te  Te3  1  0.39738936  0.79477873  0.94764702  1
  Pb  Pb4  1  0.33803547  0.67607093  0.60744943  1
  Pb  Pb5  1  0.26116022  0.52232044  0.20254177  1
  Pb  Pb6  1  0.66196453  0.32392907  0.39255057  1
  Pb  Pb7  1  0.02106579  0.04213158  0.19989048  1
  Pb  Pb8  1  0.97893421  0.95786842  0.80010952  1
  Pb  Pb9  1  0.73883978  0.47767956  0.79745823  1
  Cl  Cl10  1  0.81723541  0.63447083  0.09987072  1
  Cl  Cl11  1  0.45878539  0.91757078  0.29898410  1
  Cl  Cl12  1  0.54121461  0.08242922  0.70101590  1
  Cl  Cl13  1  0.18276459  0.36552917  0.90012928  1
  O  O14  1  0.96922363  0.41950030  0.61486813  1
  O  O15  1  0.10434750  0.20869499  0.41846552  1
  O  O16  1  0.13375384  0.73554267  0.81521531  1
  O  O17  1  0.03077637  0.58049970  0.38513187  1
  O  O18  1  0.39821117  0.26445733  0.18478469  1
  O  O19  1  0.45027668  0.41950030  0.61486813  1
  O  O20  1  0.60178883  0.73554267  0.81521531  1
  O  O21  1  0.86624616  0.26445733  0.18478469  1
  O  O22  1  0.28449230  0.00000000  0.00000000  1
  O  O23  1  0.89565250  0.79130501  0.58153448  1
  O  O24  1  0.54972332  0.58049970  0.38513187  1
  O  O25  1  0.71550770  0.00000000  0.00000000  1
