# generated using pymatgen
data_BaCa2I6
_symmetry_space_group_name_H-M   'P 1'
_cell_length_a   14.35047549
_cell_length_b   8.07106771
_cell_length_c   7.48497640
_cell_angle_alpha   90.00000000
_cell_angle_beta   94.50439576
_cell_angle_gamma   90.00000000
_symmetry_Int_Tables_number   1
_chemical_formula_structural   BaCa2I6
_chemical_formula_sum   'Ba2 Ca4 I12'
_cell_volume   864.25965722
_cell_formula_units_Z   2
loop_
 _symmetry_equiv_pos_site_id
 _symmetry_equiv_pos_as_xyz
  1  'x, y, z'
loop_
 _atom_site_type_symbol
 _atom_site_label
 _atom_site_symmetry_multiplicity
 _atom_site_fract_x
 _atom_site_fract_y
 _atom_site_fract_z
 _atom_site_occupancy
  Ba  Ba0  1  0.00000000  0.00000000  0.00000000  1
  Ba  Ba1  1  0.50000000  0.50000000  0.50000000  1
  Ca  Ca2  1  0.25290063  0.39617773  0.91483499  1
  Ca  Ca3  1  0.24709937  0.89617773  0.58516501  1
  Ca  Ca4  1  0.75290063  0.10382227  0.41483499  1
  Ca  Ca5  1  0.74709937  0.60382227  0.08516501  1
  I  I6  1  0.10520952  0.67162057  0.78790404  1
  I  I7  1  0.10481304  0.18764617  0.65712046  1
  I  I8  1  0.27643275  0.60040401  0.31435441  1
  I  I9  1  0.22356725  0.10040401  0.18564559  1
  I  I10  1  0.39518696  0.68764617  0.84287954  1
  I  I11  1  0.39479048  0.17162057  0.71209596  1
  I  I12  1  0.60520952  0.82837943  0.28790404  1
  I  I13  1  0.60481304  0.31235383  0.15712046  1
  I  I14  1  0.77643275  0.89959599  0.81435441  1
  I  I15  1  0.72356725  0.39959599  0.68564559  1
  I  I16  1  0.89518696  0.81235383  0.34287954  1
  I  I17  1  0.89479048  0.32837943  0.21209596  1
