# generated using pymatgen
data_Nd2Ti2S2O5
_symmetry_space_group_name_H-M   'P 1'
_cell_length_a   3.86802718
_cell_length_b   3.86802756
_cell_length_c   12.01295933
_cell_angle_alpha   99.26459741
_cell_angle_beta   99.26459855
_cell_angle_gamma   90.00000292
_symmetry_Int_Tables_number   1
_chemical_formula_structural   Nd2Ti2S2O5
_chemical_formula_sum   'Nd2 Ti2 S2 O5'
_cell_volume   175.01300476
_cell_formula_units_Z   1
loop_
 _symmetry_equiv_pos_site_id
 _symmetry_equiv_pos_as_xyz
  1  'x, y, z'
loop_
 _atom_site_type_symbol
 _atom_site_label
 _atom_site_symmetry_multiplicity
 _atom_site_fract_x
 _atom_site_fract_y
 _atom_site_fract_z
 _atom_site_occupancy
  O  O0  1  0.90353280  0.40353280  0.80706561  1
  Nd  Nd1  1  0.33429628  0.33429628  0.66859256  1
  S  S2  1  0.20358358  0.20358358  0.40716717  1
  O  O3  1  0.09646730  0.59646730  0.19293460  1
  S  S4  1  0.79641707  0.79641707  0.59283415  1
  Nd  Nd5  1  0.66570369  0.66570369  0.33140738  1
  O  O6  1  0.40353274  0.90353274  0.80706547  1
  Ti  Ti7  1  0.07742628  0.07742628  0.15485256  1
  Ti  Ti8  1  0.92257327  0.92257327  0.84514654  1
  O  O9  1  0.59646721  0.09646721  0.19293442  1
  O  O10  1  0.99999977  0.99999977  0.99999954  1
