# generated using pymatgen
data_BaCaI4
_symmetry_space_group_name_H-M   'P 1'
_cell_length_a   5.71922354
_cell_length_b   10.00264024
_cell_length_c   8.07328325
_cell_angle_alpha   65.98298938
_cell_angle_beta   44.91087340
_cell_angle_gamma   54.93143930
_symmetry_Int_Tables_number   1
_chemical_formula_structural   BaCaI4
_chemical_formula_sum   'Ba1 Ca1 I4'
_cell_volume   266.87657581
_cell_formula_units_Z   1
loop_
 _symmetry_equiv_pos_site_id
 _symmetry_equiv_pos_as_xyz
  1  'x, y, z'
loop_
 _atom_site_type_symbol
 _atom_site_label
 _atom_site_symmetry_multiplicity
 _atom_site_fract_x
 _atom_site_fract_y
 _atom_site_fract_z
 _atom_site_occupancy
  Ba  Ba0  1  0.01508926  0.99983848  0.49483116  1
  Ca  Ca1  1  0.50519203  0.49999345  0.99215510  1
  I  I2  1  0.24080072  0.26602773  0.99442661  1
  I  I3  1  0.24762547  0.26236298  0.49582175  1
  I  I4  1  0.77801114  0.73595819  0.99404019  1
  I  I5  1  0.78087738  0.73356817  0.49480318  1
