# generated using pymatgen
data_LiMnFeF6
_symmetry_space_group_name_H-M   'P 1'
_cell_length_a   8.88236044
_cell_length_b   8.88236109
_cell_length_c   4.81908944
_cell_angle_alpha   90.00000000
_cell_angle_beta   90.00000000
_cell_angle_gamma   120.00000130
_symmetry_Int_Tables_number   1
_chemical_formula_structural   LiMnFeF6
_chemical_formula_sum   'Li3 Mn3 Fe3 F18'
_cell_volume   329.27020167
_cell_formula_units_Z   3
loop_
 _symmetry_equiv_pos_site_id
 _symmetry_equiv_pos_as_xyz
  1  'x, y, z'
loop_
 _atom_site_type_symbol
 _atom_site_label
 _atom_site_symmetry_multiplicity
 _atom_site_fract_x
 _atom_site_fract_y
 _atom_site_fract_z
 _atom_site_occupancy
  Li  Li0  1  0.70247918  1.00000000  0.50000000  1
  Li  Li1  1  0.29752082  0.29752082  0.50000000  1
  Li  Li2  1  0.00000000  0.70247918  0.50000000  1
  Mn  Mn3  1  0.63864566  0.63864566  0.00000000  1
  Mn  Mn4  1  1.00000000  0.36135434  0.00000000  1
  Mn  Mn5  1  0.36135434  0.00000000  0.00000000  1
  Fe  Fe6  1  0.66666700  0.33333300  0.49795513  1
  Fe  Fe7  1  0.33333300  0.66666700  0.50204487  1
  Fe  Fe8  1  0.00000000  0.00000000  0.00000000  1
  F  F9  1  0.88637615  0.78736795  0.22477717  1
  F  F10  1  0.90099180  0.11362385  0.22477717  1
  F  F11  1  0.21263205  0.09900820  0.22477717  1
  F  F12  1  0.09900820  0.21263205  0.77522283  1
  F  F13  1  0.11362385  0.90099180  0.77522283  1
  F  F14  1  0.78736795  0.88637615  0.77522283  1
  F  F15  1  0.54315424  0.42035729  0.27056229  1
  F  F16  1  0.57964271  0.12279695  0.27056229  1
  F  F17  1  0.87720305  0.45684576  0.27056229  1
  F  F18  1  0.12279695  0.57964271  0.72943771  1
  F  F19  1  0.45684576  0.87720305  0.72943771  1
  F  F20  1  0.42035729  0.54315424  0.72943771  1
  F  F21  1  0.22190987  0.45409521  0.27828374  1
  F  F22  1  0.54590479  0.76781565  0.27828374  1
  F  F23  1  0.23218435  0.77809013  0.27828374  1
  F  F24  1  0.76781565  0.54590479  0.72171626  1
  F  F25  1  0.77809013  0.23218435  0.72171626  1
  F  F26  1  0.45409521  0.22190987  0.72171626  1
