# generated using pymatgen
data_Ta2Tl3Cu3S8
_symmetry_space_group_name_H-M   'P 1'
_cell_length_a   5.58450644
_cell_length_b   7.44226569
_cell_length_c   10.30150307
_cell_angle_alpha   96.18321829
_cell_angle_beta   105.72759525
_cell_angle_gamma   90.00779794
_symmetry_Int_Tables_number   1
_chemical_formula_structural   Ta2Tl3Cu3S8
_chemical_formula_sum   'Ta2 Tl3 Cu3 S8'
_cell_volume   409.52554485
_cell_formula_units_Z   1
loop_
 _symmetry_equiv_pos_site_id
 _symmetry_equiv_pos_as_xyz
  1  'x, y, z'
loop_
 _atom_site_type_symbol
 _atom_site_label
 _atom_site_symmetry_multiplicity
 _atom_site_fract_x
 _atom_site_fract_y
 _atom_site_fract_z
 _atom_site_occupancy
  Ta  Ta0  1  0.40088774  0.18974431  0.25990078  1
  Ta  Ta1  1  0.14117965  0.81029082  0.74009167  1
  Tl  Tl2  1  0.31179209  0.28780435  0.63389325  1
  Tl  Tl3  1  0.67781614  0.71218127  0.36612225  1
  Tl  Tl4  1  0.01229609  0.50000479  0.00001385  1
  Cu  Cu5  1  0.26851994  -0.00000071  0.00003332  1
  Cu  Cu6  1  0.89636919  0.18035179  0.25113047  1
  Cu  Cu7  1  0.64542243  0.81963350  0.74890343  1
  S  S8  1  0.30637911  0.87162929  0.56878355  1
  S  S9  1  0.13218967  0.94016001  0.18755723  1
  S  S10  1  0.73746853  0.12846577  0.43123178  1
  S  S11  1  0.17964716  0.42604455  0.32729074  1
  S  S12  1  0.94482070  0.05979905  0.81247095  1
  S  S13  1  0.46530638  0.74712848  0.92201014  1
  S  S14  1  0.54313698  0.25279712  0.07796481  1
  S  S15  1  0.85246820  0.57396562  0.67260179  1
