# generated using pymatgen
data_Na3Mg2P5O16
_symmetry_space_group_name_H-M   'P 1'
_cell_length_a   5.24044719
_cell_length_b   6.94319065
_cell_length_c   18.84087664
_cell_angle_alpha   90.00000000
_cell_angle_beta   90.23336635
_cell_angle_gamma   90.00000000
_symmetry_Int_Tables_number   1
_chemical_formula_structural   Na3Mg2P5O16
_chemical_formula_sum   'Na6 Mg4 P10 O32'
_cell_volume   685.52759800
_cell_formula_units_Z   2
loop_
 _symmetry_equiv_pos_site_id
 _symmetry_equiv_pos_as_xyz
  1  'x, y, z'
loop_
 _atom_site_type_symbol
 _atom_site_label
 _atom_site_symmetry_multiplicity
 _atom_site_fract_x
 _atom_site_fract_y
 _atom_site_fract_z
 _atom_site_occupancy
  Na  Na0  1  0.25226139  0.35187474  0.03236030  1
  Na  Na1  1  0.50000000  0.96577623  0.75000000  1
  Na  Na2  1  0.74773861  0.64812526  0.96763970  1
  Na  Na3  1  0.25226139  0.64812526  0.53236030  1
  Na  Na4  1  0.50000000  0.03422377  0.25000000  1
  Na  Na5  1  0.74773861  0.35187474  0.46763970  1
  Mg  Mg6  1  0.26863235  0.82213781  0.09197935  1
  Mg  Mg7  1  0.73136765  0.82213781  0.40802065  1
  Mg  Mg8  1  0.73136765  0.17786219  0.90802065  1
  Mg  Mg9  1  0.26863235  0.17786219  0.59197935  1
  P  P10  1  0.00000000  0.25943373  0.75000000  1
  P  P11  1  0.00000000  0.74056627  0.25000000  1
  P  P12  1  0.75783764  0.52561832  0.13001931  1
  P  P13  1  0.24216236  0.52561832  0.36998069  1
  P  P14  1  0.22824583  0.12229996  0.41704927  1
  P  P15  1  0.24216236  0.47438168  0.86998069  1
  P  P16  1  0.22824583  0.87770004  0.91704927  1
  P  P17  1  0.77175417  0.87770004  0.58295073  1
  P  P18  1  0.75783764  0.47438168  0.63001931  1
  P  P19  1  0.77175417  0.12229996  0.08295073  1
  O  O20  1  0.96336853  0.60137783  0.08102044  1
  O  O21  1  0.03663147  0.39862217  0.91897956  1
  O  O22  1  0.96336853  0.39862217  0.58102044  1
  O  O23  1  0.21334980  0.29956944  0.35627698  1
  O  O24  1  0.03663147  0.60137783  0.41897956  1
  O  O25  1  0.19223343  0.40414202  0.78978943  1
  O  O26  1  0.48619500  0.56934731  0.10931352  1
  O  O27  1  0.40390407  0.02179412  0.88093080  1
  O  O28  1  0.83802343  0.85109862  0.30121083  1
  O  O29  1  0.66010509  0.78288938  0.51616996  1
  O  O30  1  0.59609593  0.02179412  0.61906920  1
  O  O31  1  0.40390407  0.97820588  0.38093080  1
  O  O32  1  0.95111526  0.06308354  0.42574466  1
  O  O33  1  0.83802343  0.14890138  0.80121083  1
  O  O34  1  0.33989491  0.78288938  0.98383004  1
  O  O35  1  0.51380500  0.56934731  0.39068648  1
  O  O36  1  0.80776657  0.59585798  0.21021057  1
  O  O37  1  0.04888474  0.06308354  0.07425534  1
  O  O38  1  0.04888474  0.93691646  0.57425534  1
  O  O39  1  0.80776657  0.40414202  0.71021057  1
  O  O40  1  0.66010509  0.21711062  0.01616996  1
  O  O41  1  0.16197657  0.85109862  0.19878917  1
  O  O42  1  0.21334980  0.70043056  0.85627698  1
  O  O43  1  0.59609593  0.97820588  0.11906920  1
  O  O44  1  0.95111526  0.93691646  0.92574466  1
  O  O45  1  0.51380500  0.43065269  0.89068648  1
  O  O46  1  0.78665020  0.70043056  0.64372302  1
  O  O47  1  0.48619500  0.43065269  0.60931352  1
  O  O48  1  0.33989491  0.21711062  0.48383004  1
  O  O49  1  0.78665020  0.29956944  0.14372302  1
  O  O50  1  0.19223343  0.59585798  0.28978943  1
  O  O51  1  0.16197657  0.14890138  0.69878917  1
