# generated using pymatgen
data_CsGa2P5O16
_symmetry_space_group_name_H-M   'P 1'
_cell_length_a   7.55859117
_cell_length_b   9.37008235
_cell_length_c   10.25082127
_cell_angle_alpha   90.00000000
_cell_angle_beta   110.75712527
_cell_angle_gamma   90.00000000
_symmetry_Int_Tables_number   1
_chemical_formula_structural   CsGa2P5O16
_chemical_formula_sum   'Cs2 Ga4 P10 O32'
_cell_volume   678.88602456
_cell_formula_units_Z   2
loop_
 _symmetry_equiv_pos_site_id
 _symmetry_equiv_pos_as_xyz
  1  'x, y, z'
loop_
 _atom_site_type_symbol
 _atom_site_label
 _atom_site_symmetry_multiplicity
 _atom_site_fract_x
 _atom_site_fract_y
 _atom_site_fract_z
 _atom_site_occupancy
  Cs  Cs0  1  0.75469101  0.19600308  0.73513953  1
  Cs  Cs1  1  0.25469101  0.80399692  0.23513953  1
  Ga  Ga2  1  0.71270025  0.63094258  0.62707672  1
  Ga  Ga3  1  0.16311335  0.13859235  0.51960723  1
  Ga  Ga4  1  0.21270025  0.36905742  0.12707672  1
  Ga  Ga5  1  0.66311335  0.86140765  0.01960723  1
  P  P6  1  0.85797214  0.58534949  0.96116090  1
  P  P7  1  0.50008299  0.54456995  0.00056936  1
  P  P8  1  0.92440356  0.12701118  0.18784162  1
  P  P9  1  0.80878436  0.70354032  0.36203816  1
  P  P10  1  0.42440356  0.87298882  0.68784162  1
  P  P11  1  0.01844087  0.86065005  0.61688024  1
  P  P12  1  0.00008299  0.45543005  0.50056936  1
  P  P13  1  0.30878436  0.29645968  0.86203816  1
  P  P14  1  0.51844087  0.13934995  0.11688024  1
  P  P15  1  0.35797214  0.41465051  0.46116090  1
  O  O16  1  0.71695781  0.50659399  0.02997501  1
  O  O17  1  0.49311940  0.21696850  0.97011836  1
  O  O18  1  0.84823453  0.74614278  0.98140137  1
  O  O19  1  0.88911350  0.54405745  0.35802284  1
  O  O20  1  0.04912940  0.06546630  0.32839969  1
  O  O21  1  0.94351566  0.51831071  0.61504654  1
  O  O22  1  0.26451461  0.23130942  0.72203298  1
  O  O23  1  0.22817757  0.81923774  0.70932265  1
  O  O24  1  0.38911350  0.45594255  0.85802284  1
  O  O25  1  0.96861285  0.29763264  0.47153158  1
  O  O26  1  0.44351566  0.48168929  0.11504654  1
  O  O27  1  0.21695781  0.49340601  0.52997501  1
  O  O28  1  0.54912940  0.93453370  0.82839969  1
  O  O29  1  0.99311940  0.78303150  0.47011836  1
  O  O30  1  0.55465454  0.46720783  0.54635195  1
  O  O31  1  0.99840683  0.02074098  0.59025422  1
  O  O32  1  0.46861285  0.70236736  0.97153158  1
  O  O33  1  0.88532798  0.80130034  0.68311098  1
  O  O34  1  0.38532798  0.19869966  0.18311098  1
  O  O35  1  0.65685000  0.70158764  0.42639220  1
  O  O36  1  0.34823453  0.25385722  0.48140137  1
  O  O37  1  0.36135280  0.98800456  0.57421711  1
  O  O38  1  0.00107796  0.25854782  0.13991456  1
  O  O39  1  0.76451461  0.76869058  0.22203298  1
  O  O40  1  0.28416603  0.45992357  0.30845417  1
  O  O41  1  0.05465454  0.53279217  0.04635195  1
  O  O42  1  0.50107796  0.74145218  0.63991456  1
  O  O43  1  0.78416603  0.54007643  0.80845417  1
  O  O44  1  0.49840683  0.97925902  0.09025422  1
  O  O45  1  0.86135280  0.01199544  0.07421711  1
  O  O46  1  0.72817757  0.18076226  0.20932265  1
  O  O47  1  0.15685000  0.29841236  0.92639220  1
