# generated using pymatgen
data_SiAg6SO8
_symmetry_space_group_name_H-M   'P 1'
_cell_length_a   7.05279175
_cell_length_b   7.05278050
_cell_length_c   10.42644379
_cell_angle_alpha   109.76768326
_cell_angle_beta   109.76769208
_cell_angle_gamma   89.98593979
_symmetry_Int_Tables_number   1
_chemical_formula_structural   SiAg6SO8
_chemical_formula_sum   'Si2 Ag12 S2 O16'
_cell_volume   455.47638255
_cell_formula_units_Z   2
loop_
 _symmetry_equiv_pos_site_id
 _symmetry_equiv_pos_as_xyz
  1  'x, y, z'
loop_
 _atom_site_type_symbol
 _atom_site_label
 _atom_site_symmetry_multiplicity
 _atom_site_fract_x
 _atom_site_fract_y
 _atom_site_fract_z
 _atom_site_occupancy
  Si  Si0  1  0.87510341  0.62489651  0.24999983  1
  Si  Si1  1  0.12489659  0.37510349  0.75000017  1
  Ag  Ag2  1  0.00001003  0.70553919  0.99995444  1
  Ag  Ag3  1  0.99998997  0.29446081  0.00004556  1
  Ag  Ag4  1  0.79444657  0.00007744  0.50006351  1
  Ag  Ag5  1  0.11095179  0.86123427  0.72201562  1
  Ag  Ag6  1  0.50007786  0.29444662  0.00006373  1
  Ag  Ag7  1  0.36123403  0.61095160  0.22201568  1
  Ag  Ag8  1  0.88904821  0.13876573  0.27798438  1
  Ag  Ag9  1  0.20555343  0.99992256  0.49993649  1
  Ag  Ag10  1  0.63876597  0.38904840  0.77798432  1
  Ag  Ag11  1  0.79446050  0.49998991  0.50004547  1
  Ag  Ag12  1  0.20553950  0.50001009  0.49995453  1
  Ag  Ag13  1  0.49992214  0.70555338  0.99993627  1
  S  S14  1  0.62496238  0.87503606  0.74999804  1
  S  S15  1  0.37503762  0.12496394  0.25000196  1
  O  O16  1  0.49878464  0.92224599  0.84437218  1
  O  O17  1  0.84559942  0.92217296  0.84427029  1
  O  O18  1  0.50121536  0.07775401  0.15562782  1
  O  O19  1  0.87903513  0.32361609  0.64728172  1
  O  O20  1  0.17638389  0.62096521  0.85271818  1
  O  O21  1  0.82348215  0.76804706  0.14709552  1
  O  O22  1  0.82361611  0.37903479  0.14728182  1
  O  O23  1  0.17651785  0.23195294  0.85290448  1
  O  O24  1  0.73195310  0.67651769  0.35290448  1
  O  O25  1  0.42217244  0.34559811  0.34426977  1
  O  O26  1  0.26804690  0.32348231  0.64709552  1
  O  O27  1  0.57775440  1.00121466  0.65562830  1
  O  O28  1  0.12096487  0.67638391  0.35271828  1
  O  O29  1  0.57782756  0.65440189  0.65573023  1
  O  O30  1  0.42224560  -0.00121466  0.34437170  1
  O  O31  1  0.15440058  0.07782704  0.15572971  1
