# generated using pymatgen
data_K5B19O31
_symmetry_space_group_name_H-M   'P 1'
_cell_length_a   10.76395083
_cell_length_b   10.76395042
_cell_length_c   13.13938170
_cell_angle_alpha   85.35800207
_cell_angle_beta   85.35800226
_cell_angle_gamma   65.64318014
_symmetry_Int_Tables_number   1
_chemical_formula_structural   K5B19O31
_chemical_formula_sum   'K10 B38 O62'
_cell_volume   1380.41892373
_cell_formula_units_Z   2
loop_
 _symmetry_equiv_pos_site_id
 _symmetry_equiv_pos_as_xyz
  1  'x, y, z'
loop_
 _atom_site_type_symbol
 _atom_site_label
 _atom_site_symmetry_multiplicity
 _atom_site_fract_x
 _atom_site_fract_y
 _atom_site_fract_z
 _atom_site_occupancy
  K  K0  1  0.05527131  0.59480399  0.16747725  1
  K  K1  1  0.70825440  0.61920537  0.30379399  1
  K  K2  1  0.59480399  0.05527131  0.66747725  1
  K  K3  1  0.38079463  0.29174560  0.19620601  1
  K  K4  1  0.00000000  0.00000000  0.50000000  1
  K  K5  1  0.40519601  0.94472869  0.33252275  1
  K  K6  1  0.00000000  0.00000000  0.00000000  1
  K  K7  1  0.61920537  0.70825440  0.80379399  1
  K  K8  1  0.29174560  0.38079463  0.69620601  1
  K  K9  1  0.94472869  0.40519601  0.83252275  1
  B  B10  1  0.53424116  0.43369506  0.38125712  1
  B  B11  1  0.88881371  0.75916216  0.64368318  1
  B  B12  1  0.09348365  0.04115758  0.75912195  1
  B  B13  1  0.28329043  0.23924778  0.47527502  1
  B  B14  1  0.68868387  0.28180844  0.50349622  1
  B  B15  1  0.04115758  0.09348365  0.25912195  1
  B  B16  1  0.32392653  0.82756939  0.13467842  1
  B  B17  1  0.76075222  0.71670957  0.02472498  1
  B  B18  1  0.67264109  0.01950005  0.30129173  1
  B  B19  1  0.20609735  0.52936567  0.92789266  1
  B  B20  1  0.11118629  0.24083784  0.35631682  1
  B  B21  1  0.31131613  0.71819156  0.49650378  1
  B  B22  1  0.75916216  0.88881371  0.14368318  1
  B  B23  1  0.98049995  0.32735891  0.19870827  1
  B  B24  1  0.82756939  0.32392653  0.63467842  1
  B  B25  1  0.28180844  0.68868387  0.00349622  1
  B  B26  1  0.95884242  0.90651635  0.74087805  1
  B  B27  1  0.52936567  0.20609735  0.42789266  1
  B  B28  1  0.71670957  0.76075222  0.52472498  1
  B  B29  1  0.46575884  0.56630494  0.61874288  1
  B  B30  1  0.71819156  0.31131613  0.99650378  1
  B  B31  1  0.67607347  0.17243061  0.86532158  1
  B  B32  1  0.90651635  0.95884242  0.24087805  1
  B  B33  1  0.23924778  0.28329043  0.97527502  1
  B  B34  1  0.39105162  0.60894838  0.25000000  1
  B  B35  1  0.95117423  0.70259616  0.46095023  1
  B  B36  1  0.29740384  0.04882577  0.03904977  1
  B  B37  1  0.56630494  0.46575884  0.11874288  1
  B  B38  1  0.47063433  0.79390265  0.57210734  1
  B  B39  1  0.43369506  0.53424116  0.88125712  1
  B  B40  1  0.32735891  0.98049995  0.69870827  1
  B  B41  1  0.01950005  0.67264109  0.80129173  1
  B  B42  1  0.70259616  0.95117423  0.96095023  1
  B  B43  1  0.79390265  0.47063433  0.07210734  1
  B  B44  1  0.24083784  0.11118629  0.85631682  1
  B  B45  1  0.60894838  0.39105162  0.75000000  1
  B  B46  1  0.04882577  0.29740384  0.53904977  1
  B  B47  1  0.17243061  0.67607347  0.36532158  1
  O  O48  1  0.66553796  0.50826881  0.13593616  1
  O  O49  1  0.01279920  0.28542084  0.44524505  1
  O  O50  1  0.18229796  0.64465321  0.99193193  1
  O  O51  1  0.98720080  0.71457916  0.55475495  1
  O  O52  1  0.21646200  0.41134423  -0.00015079  1
  O  O53  1  0.64465321  0.18229796  0.49193193  1
  O  O54  1  0.88171890  0.89661712  0.66765295  1
  O  O55  1  0.79866555  0.02761556  0.30897916  1
  O  O56  1  0.79397015  0.25164962  0.56759773  1
  O  O57  1  0.71457916  0.98720080  0.05475495  1
  O  O58  1  0.56047319  0.09221929  0.36055263  1
  O  O59  1  0.20602985  0.74835038  0.43240227  1
  O  O60  1  0.66032641  0.93726851  0.23114762  1
  O  O61  1  0.74835038  0.20602985  0.93240227  1
  O  O62  1  0.49173119  0.33446204  0.36406384  1
  O  O63  1  0.43889127  0.51482272  0.16608393  1
  O  O64  1  0.41134423  0.21646200  0.49984921  1
  O  O65  1  0.48517728  0.56110873  0.33391607  1
  O  O66  1  0.28542084  0.01279920  0.94524505  1
  O  O67  1  0.72096256  0.81831520  0.94390974  1
  O  O68  1  0.97238444  0.20133445  0.19102084  1
  O  O69  1  0.75080245  0.77639966  0.62005297  1
  O  O70  1  0.06273149  0.33967359  0.26885238  1
  O  O71  1  0.89661712  0.88171890  0.16765295  1
  O  O72  1  0.77639966  0.75080245  0.12005297  1
  O  O73  1  0.67389367  0.04246921  0.87606464  1
  O  O74  1  0.35534679  0.81770204  0.50806807  1
  O  O75  1  0.61505542  0.25268274  0.78345852  1
  O  O76  1  0.59353165  0.36049274  0.05190613  1
  O  O77  1  0.38494458  0.74731726  0.21654148  1
  O  O78  1  0.02831846  0.97168154  0.25000000  1
  O  O79  1  0.25268274  0.61505542  0.28345852  1
  O  O80  1  0.95753079  0.32610633  0.62393536  1
  O  O81  1  0.22360034  0.24919755  0.87994703  1
  O  O82  1  0.33446204  0.49173119  0.86406384  1
  O  O83  1  0.40646835  0.63950726  0.94809387  1
  O  O84  1  0.50826881  0.66553796  0.63593616  1
  O  O85  1  0.25164962  0.79397015  0.06759773  1
  O  O86  1  0.32610633  0.95753079  0.12393536  1
  O  O87  1  0.10338288  0.11828110  0.83234705  1
  O  O88  1  0.24919755  0.22360034  0.37994703  1
  O  O89  1  0.02761556  0.79866555  0.80897916  1
  O  O90  1  0.36049274  0.59353165  0.55190613  1
  O  O91  1  0.09221929  0.56047319  0.86055263  1
  O  O92  1  0.04246921  0.67389367  0.37606464  1
  O  O93  1  0.90778071  0.43952681  0.13944737  1
  O  O94  1  0.58865577  0.78353800  0.50015079  1
  O  O95  1  0.74731726  0.38494458  0.71654148  1
  O  O96  1  0.97168154  0.02831846  0.75000000  1
  O  O97  1  0.81770204  0.35534679  0.00806807  1
  O  O98  1  0.20133445  0.97238444  0.69102084  1
  O  O99  1  0.56110873  0.48517728  0.83391607  1
  O  O100  1  0.33967359  0.06273149  0.76885238  1
  O  O101  1  0.78353800  0.58865577  1.00015079  1
  O  O102  1  0.93726851  0.66032641  0.73114762  1
  O  O103  1  0.63950726  0.40646835  0.44809387  1
  O  O104  1  0.81831520  0.72096256  0.44390974  1
  O  O105  1  0.43952681  0.90778071  0.63944737  1
  O  O106  1  0.27903744  0.18168480  0.05609026  1
  O  O107  1  0.51482272  0.43889127  0.66608393  1
  O  O108  1  0.11828110  0.10338288  0.33234705  1
  O  O109  1  0.18168480  0.27903744  0.55609026  1
