# generated using pymatgen
data_Pr7BP2O17
_symmetry_space_group_name_H-M   'P 1'
_cell_length_a   6.98309521
_cell_length_b   12.55757920
_cell_length_c   17.93867610
_cell_angle_alpha   90.00000000
_cell_angle_beta   90.00000000
_cell_angle_gamma   97.40531670
_symmetry_Int_Tables_number   1
_chemical_formula_structural   Pr7BP2O17
_chemical_formula_sum   'Pr28 B4 P8 O68'
_cell_volume   1559.93580254
_cell_formula_units_Z   4
loop_
 _symmetry_equiv_pos_site_id
 _symmetry_equiv_pos_as_xyz
  1  'x, y, z'
loop_
 _atom_site_type_symbol
 _atom_site_label
 _atom_site_symmetry_multiplicity
 _atom_site_fract_x
 _atom_site_fract_y
 _atom_site_fract_z
 _atom_site_occupancy
  Pr  Pr0  1  0.02409087  0.82083974  0.72539640  1
  Pr  Pr1  1  0.47590913  0.67916026  0.22539640  1
  Pr  Pr2  1  0.98916096  0.78848455  0.51825725  1
  Pr  Pr3  1  0.68778797  0.40343830  0.22325671  1
  Pr  Pr4  1  0.99551904  0.30230199  0.89446975  1
  Pr  Pr5  1  0.50448096  0.19769801  0.39446975  1
  Pr  Pr6  1  0.20908678  0.42993370  0.13332754  1
  Pr  Pr7  1  0.18778797  0.90343830  0.27674329  1
  Pr  Pr8  1  0.97590913  0.17916026  0.27460360  1
  Pr  Pr9  1  0.00448096  0.69769801  0.10553025  1
  Pr  Pr10  1  0.29091322  0.07006630  0.63332754  1
  Pr  Pr11  1  0.70908678  0.92993370  0.36667246  1
  Pr  Pr12  1  0.22593272  0.50962582  0.55446978  1
  Pr  Pr13  1  0.77406728  0.49037418  0.44553022  1
  Pr  Pr14  1  0.51083904  0.71151545  0.01825725  1
  Pr  Pr15  1  0.25964915  0.07273614  0.84564715  1
  Pr  Pr16  1  0.75964915  0.57273614  0.65435285  1
  Pr  Pr17  1  0.52409087  0.32083974  0.77460360  1
  Pr  Pr18  1  0.72593272  0.00962582  0.94553022  1
  Pr  Pr19  1  0.81221203  0.09656170  0.72325671  1
  Pr  Pr20  1  0.27406728  0.99037418  0.05446978  1
  Pr  Pr21  1  0.74035085  0.92726386  0.15435285  1
  Pr  Pr22  1  0.48916096  0.28848455  0.98174275  1
  Pr  Pr23  1  0.24035085  0.42726386  0.34564715  1
  Pr  Pr24  1  0.31221203  0.59656170  0.77674329  1
  Pr  Pr25  1  0.01083904  0.21151545  0.48174275  1
  Pr  Pr26  1  0.79091322  0.57006630  0.86667246  1
  Pr  Pr27  1  0.49551904  0.80230199  0.60553025  1
  B  B28  1  0.25089446  0.50042572  0.93182745  1
  B  B29  1  0.75089446  0.00042572  0.56817255  1
  B  B30  1  0.74910554  0.49957428  0.06817255  1
  B  B31  1  0.24910554  0.99957428  0.43182745  1
  P  P32  1  0.94865072  0.66314391  0.30113049  1
  P  P33  1  0.55134928  0.83685609  0.80113049  1
  P  P34  1  0.53742446  0.31691419  0.56139050  1
  P  P35  1  0.96257554  0.18308581  0.06139050  1
  P  P36  1  0.46257554  0.68308581  0.43860950  1
  P  P37  1  0.44865072  0.16314391  0.19886951  1
  P  P38  1  0.05134928  0.33685609  0.69886951  1
  P  P39  1  0.03742446  0.81691419  0.93860950  1
  O  O40  1  0.22784220  0.42037984  0.98577685  1
  O  O41  1  0.50699833  0.87441423  0.24519408  1
  O  O42  1  0.03890026  0.40341142  0.45779182  1
  O  O43  1  0.00699833  0.37441423  0.25480592  1
  O  O44  1  0.88359094  0.30776406  0.75675909  1
  O  O45  1  0.98401133  0.40682851  0.63558008  1
  O  O46  1  0.30487461  0.62513760  0.10951217  1
  O  O47  1  0.39865922  0.49130049  0.23300118  1
  O  O48  1  0.59913591  0.00104801  0.62049590  1
  O  O49  1  0.31920684  0.72306433  0.49609683  1
  O  O50  1  0.61640906  0.19223594  0.25675909  1
  O  O51  1  0.60301060  0.72735359  0.82880570  1
  O  O52  1  0.27215780  0.07962016  0.48577685  1
  O  O53  1  0.99300167  0.62558577  0.74519408  1
  O  O54  1  0.38359094  0.80776406  0.74324091  1
  O  O55  1  0.51598867  0.09317149  0.13558008  1
  O  O56  1  0.69159810  0.74103259  0.13241283  1
  O  O57  1  0.41293375  0.57325879  0.91939113  1
  O  O58  1  0.77215780  0.57962016  0.01422315  1
  O  O59  1  0.77084004  0.59862018  0.26276604  1
  O  O60  1  0.30840190  0.25896741  0.86758717  1
  O  O61  1  0.81920684  0.22306433  0.00390317  1
  O  O62  1  0.09913591  0.50104801  0.87950410  1
  O  O63  1  0.22915996  0.40137982  0.73723396  1
  O  O64  1  0.53890026  0.90341142  0.04220818  1
  O  O65  1  0.19512539  0.87486240  0.60951217  1
  O  O66  1  0.91732964  0.11946905  0.85523378  1
  O  O67  1  0.41732964  0.61946905  0.64476622  1
  O  O68  1  0.72915996  0.90137982  0.76276604  1
  O  O69  1  0.91293375  0.07325879  0.58060887  1
  O  O70  1  0.04912558  0.76175329  0.86315263  1
  O  O71  1  0.72784220  0.92037984  0.51422315  1
  O  O72  1  0.90086409  0.49895199  0.12049590  1
  O  O73  1  0.66895021  0.70240250  0.47159332  1
  O  O74  1  0.48401133  0.90682851  0.86441992  1
  O  O75  1  0.18079316  0.77693567  0.99609683  1
  O  O76  1  0.95087442  0.23824671  0.13684737  1
  O  O77  1  0.33104979  0.29759750  0.52840668  1
  O  O78  1  0.83104979  0.79759750  0.97159332  1
  O  O79  1  0.80840190  0.75896741  0.63241283  1
  O  O80  1  0.16895021  0.20240250  0.02840668  1
  O  O81  1  0.45087442  0.73824671  0.36315263  1
  O  O82  1  0.58645884  0.44217070  0.56537679  1
  O  O83  1  0.58267036  0.38053095  0.35523378  1
  O  O84  1  0.08706625  0.92674121  0.41939113  1
  O  O85  1  0.10301060  0.22735359  0.67119430  1
  O  O86  1  0.08267036  0.88053095  0.14476622  1
  O  O87  1  0.89865922  0.99130049  0.26699882  1
  O  O88  1  0.58706625  0.42674121  0.08060887  1
  O  O89  1  0.91354116  0.05782930  0.06537679  1
  O  O90  1  0.11640906  0.69223594  0.24324091  1
  O  O91  1  0.40086409  0.99895199  0.37950410  1
  O  O92  1  0.68079316  0.27693567  0.50390317  1
  O  O93  1  0.08645884  0.94217070  0.93462321  1
  O  O94  1  0.27084004  0.09862018  0.23723396  1
  O  O95  1  0.89698940  0.77264641  0.32880570  1
  O  O96  1  0.69512539  0.37486240  0.89048783  1
  O  O97  1  0.80487461  0.12513760  0.39048783  1
  O  O98  1  0.01598867  0.59317149  0.36441992  1
  O  O99  1  0.60134078  0.50869951  0.76699882  1
  O  O100  1  0.19159810  0.24103259  0.36758717  1
  O  O101  1  0.46109974  0.09658858  0.95779182  1
  O  O102  1  0.10134078  0.00869951  0.73300118  1
  O  O103  1  0.96109974  0.59658858  0.54220818  1
  O  O104  1  0.49300167  0.12558577  0.75480592  1
  O  O105  1  0.39698940  0.27264641  0.17119430  1
  O  O106  1  0.54912558  0.26175329  0.63684737  1
  O  O107  1  0.41354116  0.55782930  0.43462321  1
