# generated using pymatgen
data_WF6
_symmetry_space_group_name_H-M   'P 1'
_cell_length_a   5.31014222
_cell_length_b   9.11769796
_cell_length_c   10.04877066
_cell_angle_alpha   90.00000000
_cell_angle_beta   90.00000000
_cell_angle_gamma   90.00000000
_symmetry_Int_Tables_number   1
_chemical_formula_structural   WF6
_chemical_formula_sum   'W4 F24'
_cell_volume   486.52402245
_cell_formula_units_Z   4
loop_
 _symmetry_equiv_pos_site_id
 _symmetry_equiv_pos_as_xyz
  1  'x, y, z'
loop_
 _atom_site_type_symbol
 _atom_site_label
 _atom_site_symmetry_multiplicity
 _atom_site_fract_x
 _atom_site_fract_y
 _atom_site_fract_z
 _atom_site_occupancy
  F  F0  1  0.56266680  0.39584979  0.26463961  1
  F  F1  1  0.06266680  0.60415021  0.23536039  1
  F  F2  1  0.43733320  0.89584979  0.73536039  1
  F  F3  1  0.93733320  0.10415021  0.76463961  1
  F  F4  1  0.20072067  0.75000000  0.01813380  1
  F  F5  1  0.70072067  0.25000000  0.48186620  1
  F  F6  1  0.79927933  0.25000000  0.98186620  1
  F  F7  1  0.29927933  0.75000000  0.51813380  1
  F  F8  1  0.62911089  0.75000000  0.23919161  1
  F  F9  1  0.12911089  0.25000000  0.26080839  1
  F  F10  1  0.37088911  0.25000000  0.76080839  1
  F  F11  1  0.87088911  0.75000000  0.73919161  1
  F  F12  1  0.76684734  0.89551477  0.02176046  1
  F  F13  1  0.26684734  0.10448523  0.47823954  1
  F  F14  1  0.23315266  0.39551477  0.97823954  1
  F  F15  1  0.73315266  0.60448523  0.52176046  1
  F  F16  1  0.23315266  0.10448523  0.97823954  1
  F  F17  1  0.73315266  0.89551477  0.52176046  1
  F  F18  1  0.76684734  0.60448523  0.02176046  1
  F  F19  1  0.26684734  0.39551477  0.47823954  1
  F  F20  1  0.06266680  0.89584979  0.23536039  1
  F  F21  1  0.56266680  0.10415021  0.26463961  1
  F  F22  1  0.93733320  0.39584979  0.76463961  1
  F  F23  1  0.43733320  0.60415021  0.73536039  1
  W  W24  1  0.58477224  0.75000000  0.62868858  1
  W  W25  1  0.08477224  0.25000000  0.87131142  1
  W  W26  1  0.41522776  0.25000000  0.37131142  1
  W  W27  1  0.91522776  0.75000000  0.12868858  1
