# generated using pymatgen
data_Rb2SbAuS4
_symmetry_space_group_name_H-M   'P 1'
_cell_length_a   7.03085122
_cell_length_b   7.40093514
_cell_length_c   20.51561163
_cell_angle_alpha   90.00000000
_cell_angle_beta   90.00000000
_cell_angle_gamma   90.00000000
_symmetry_Int_Tables_number   1
_chemical_formula_structural   Rb2SbAuS4
_chemical_formula_sum   'Rb8 Sb4 Au4 S16'
_cell_volume   1067.52726329
_cell_formula_units_Z   4
loop_
 _symmetry_equiv_pos_site_id
 _symmetry_equiv_pos_as_xyz
  1  'x, y, z'
loop_
 _atom_site_type_symbol
 _atom_site_label
 _atom_site_symmetry_multiplicity
 _atom_site_fract_x
 _atom_site_fract_y
 _atom_site_fract_z
 _atom_site_occupancy
  Rb  Rb0  1  0.29592803  0.75000000  0.01214625  1
  Rb  Rb1  1  0.90030034  0.25000000  0.67089248  1
  Rb  Rb2  1  0.70407197  0.25000000  0.98785375  1
  Rb  Rb3  1  0.29592803  0.25000000  0.48785375  1
  Rb  Rb4  1  0.09969966  0.75000000  0.32910752  1
  Rb  Rb5  1  0.09969966  0.25000000  0.17089248  1
  Rb  Rb6  1  0.70407197  0.75000000  0.51214625  1
  Rb  Rb7  1  0.90030034  0.75000000  0.82910752  1
  Sb  Sb8  1  0.79210147  0.75000000  0.11095097  1
  Sb  Sb9  1  0.79210147  0.25000000  0.38904903  1
  Sb  Sb10  1  0.20789853  0.25000000  0.88904903  1
  Sb  Sb11  1  0.20789853  0.75000000  0.61095097  1
  Au  Au12  1  0.60971365  0.00000000  0.25000000  1
  Au  Au13  1  0.39028635  0.00000000  0.75000000  1
  Au  Au14  1  0.60971365  0.50000000  0.25000000  1
  Au  Au15  1  0.39028635  0.50000000  0.75000000  1
  S  S16  1  0.61117790  0.51676907  0.36249360  1
  S  S17  1  0.79805121  0.25000000  0.50305926  1
  S  S18  1  0.38882210  0.01676907  0.63750640  1
  S  S19  1  0.08980673  0.25000000  0.33905304  1
  S  S20  1  0.61117790  0.98323093  0.36249360  1
  S  S21  1  0.61117790  0.48323093  0.13750640  1
  S  S22  1  0.20194879  0.25000000  0.00305926  1
  S  S23  1  0.91019327  0.25000000  0.83905304  1
  S  S24  1  0.20194879  0.75000000  0.49694074  1
  S  S25  1  0.38882210  0.48323093  0.63750640  1
  S  S26  1  0.61117790  0.01676907  0.13750640  1
  S  S27  1  0.38882210  0.51676907  0.86249360  1
  S  S28  1  0.91019327  0.75000000  0.66094696  1
  S  S29  1  0.79805121  0.75000000  0.99694074  1
  S  S30  1  0.08980673  0.75000000  0.16094696  1
  S  S31  1  0.38882210  0.98323093  0.86249360  1
