# generated using pymatgen
data_BaAg2SnS4
_symmetry_space_group_name_H-M   'P 1'
_cell_length_a   6.50847217
_cell_length_b   6.50847189
_cell_length_c   6.50847150
_cell_angle_alpha   100.31312294
_cell_angle_beta   112.55787109
_cell_angle_gamma   115.93531055
_symmetry_Int_Tables_number   1
_chemical_formula_structural   BaAg2SnS4
_chemical_formula_sum   'Ba1 Ag2 Sn1 S4'
_cell_volume   208.04569394
_cell_formula_units_Z   1
loop_
 _symmetry_equiv_pos_site_id
 _symmetry_equiv_pos_as_xyz
  1  'x, y, z'
loop_
 _atom_site_type_symbol
 _atom_site_label
 _atom_site_symmetry_multiplicity
 _atom_site_fract_x
 _atom_site_fract_y
 _atom_site_fract_z
 _atom_site_occupancy
  Ba  Ba0  1  0.00000000  0.00000000  0.00000000  1
  Ag  Ag1  1  0.50000000  0.20182214  0.70182214  1
  Ag  Ag2  1  0.50000000  0.79817786  0.29817786  1
  Sn  Sn3  1  0.00000000  0.50000000  0.50000000  1
  S  S4  1  0.00927604  0.53316411  0.13732683  1
  S  S5  1  0.99072396  0.12805080  0.52388807  1
  S  S6  1  0.39583727  0.87194920  0.86267317  1
  S  S7  1  0.60416273  0.46683589  0.47611193  1
