# generated using pymatgen
data_Sr11(OsO6)4
_symmetry_space_group_name_H-M   'P 1'
_cell_length_a   11.66706456
_cell_length_b   11.66706575
_cell_length_c   11.66737943
_cell_angle_alpha   119.25017239
_cell_angle_beta   119.26300662
_cell_angle_gamma   91.29101139
_symmetry_Int_Tables_number   1
_chemical_formula_structural   Sr11(OsO6)4
_chemical_formula_sum   'Sr22 Os8 O48'
_cell_volume   1135.32611929
_cell_formula_units_Z   2
loop_
 _symmetry_equiv_pos_site_id
 _symmetry_equiv_pos_as_xyz
  1  'x, y, z'
loop_
 _atom_site_type_symbol
 _atom_site_label
 _atom_site_symmetry_multiplicity
 _atom_site_fract_x
 _atom_site_fract_y
 _atom_site_fract_z
 _atom_site_occupancy
  Sr  Sr0  1  0.24531875  0.80712947  0.48482195  1
  Sr  Sr1  1  0.15810433  0.84963174  0.78205023  1
  Sr  Sr2  1  0.61228992  0.86228992  0.75000000  1
  Sr  Sr3  1  0.86221157  0.61221157  0.25000000  1
  Sr  Sr4  1  0.23997321  0.75492030  0.06217334  1
  Sr  Sr5  1  0.84189567  0.15036826  0.21794977  1
  Sr  Sr6  1  0.13778843  0.38778843  0.75000000  1
  Sr  Sr7  1  0.76002679  0.24507970  0.93782666  1
  Sr  Sr8  1  0.19274696  0.17779986  0.43782666  1
  Sr  Sr9  1  0.82230752  0.76049681  0.01517805  1
  Sr  Sr10  1  0.80725304  0.82220014  0.56217334  1
  Sr  Sr11  1  0.62577836  0.37577836  0.25000000  1
  Sr  Sr12  1  0.17769248  0.23950319  0.98482195  1
  Sr  Sr13  1  0.37422164  0.62422164  0.75000000  1
  Sr  Sr14  1  0.15066576  0.43235476  0.30856279  1
  Sr  Sr15  1  0.75468125  0.19287053  0.51517805  1
  Sr  Sr16  1  0.43241849  0.62394590  0.28205023  1
  Sr  Sr17  1  0.62379197  0.84210296  0.19143721  1
  Sr  Sr18  1  0.84933424  0.56764524  0.69143721  1
  Sr  Sr19  1  0.56758151  0.37605410  0.71794977  1
  Sr  Sr20  1  0.38771008  0.13771008  0.25000000  1
  Sr  Sr21  1  0.37620803  0.15789704  0.80856279  1
  Os  Os22  1  0.00000000  0.00000000  0.00000000  1
  Os  Os23  1  0.50000000  0.50000000  0.50000000  1
  Os  Os24  1  0.50000000  0.00000000  0.00000000  1
  Os  Os25  1  0.00000000  0.00000000  0.50000000  1
  Os  Os26  1  0.50000000  0.50000000  0.00000000  1
  Os  Os27  1  0.50000000  0.00000000  0.50000000  1
  Os  Os28  1  0.00000000  0.50000000  0.00000000  1
  Os  Os29  1  0.00000000  0.50000000  0.50000000  1
  O  O30  1  0.83600688  0.99282651  0.49874473  1
  O  O31  1  0.48383396  0.02771405  0.66705923  1
  O  O32  1  0.36384140  0.35979437  0.76283432  1
  O  O33  1  0.00776543  0.00547853  0.84301439  1
  O  O34  1  0.60504609  0.14398126  0.01508966  1
  O  O35  1  0.66246414  0.16475104  0.65698561  1
  O  O36  1  0.02788874  0.86153584  0.54475737  1
  O  O37  1  0.86065482  0.81677473  0.83294077  1
  O  O38  1  0.39973131  0.63694915  0.49736091  1
  O  O39  1  0.97211126  0.13846416  0.45524263  1
  O  O40  1  0.38804535  0.89228461  0.77113139  1
  O  O41  1  0.62115322  0.61691396  0.72886861  1
  O  O42  1  0.85642307  0.37072793  0.46110739  1
  O  O43  1  0.07117160  0.60370094  0.22302872  1
  O  O44  1  0.10936027  0.38021240  0.49812579  1
  O  O45  1  0.51616604  0.97228595  0.33294077  1
  O  O46  1  0.13934518  0.18322527  0.16705923  1
  O  O47  1  0.62889160  0.58995642  0.48491034  1
  O  O48  1  0.88067222  0.84814288  0.27697128  1
  O  O49  1  0.63958824  0.90237040  0.00263909  1
  O  O50  1  0.92882840  0.39629906  0.77697128  1
  O  O51  1  0.37884678  0.38308604  0.27113139  1
  O  O52  1  0.00591821  0.66273785  0.99874473  1
  O  O53  1  0.61195465  0.10771539  0.22886861  1
  O  O54  1  0.39586418  0.11872525  0.46745306  1
  O  O55  1  0.90303994  0.39899292  0.26283432  1
  O  O56  1  0.61791338  0.38876552  0.99812579  1
  O  O57  1  0.99223457  0.99452147  0.15698561  1
  O  O58  1  0.18322154  0.51686864  0.04475737  1
  O  O59  1  0.99408179  0.33726215  0.00125527  1
  O  O60  1  0.84872781  0.07158888  0.96745306  1
  O  O61  1  0.15127219  0.92841112  0.03254694  1
  O  O62  1  0.37110840  0.41004358  0.51508966  1
  O  O63  1  0.60026869  0.36305085  0.50263909  1
  O  O64  1  0.11932778  0.15185712  0.72302872  1
  O  O65  1  0.39495391  0.85601874  0.98491034  1
  O  O66  1  0.59037946  0.60468432  0.96110739  1
  O  O67  1  0.63615860  0.64020563  0.23716568  1
  O  O68  1  0.14357693  0.62927207  0.53889261  1
  O  O69  1  0.33753586  0.83524896  0.34301439  1
  O  O70  1  0.09696006  0.60100708  0.73716568  1
  O  O71  1  0.89063973  0.61978760  0.50187421  1
  O  O72  1  0.16399312  0.00717349  0.50125527  1
  O  O73  1  0.38208662  0.61123448  0.00187421  1
  O  O74  1  0.81677846  0.48313136  0.95524263  1
  O  O75  1  0.60413582  0.88127475  0.53254694  1
  O  O76  1  0.40962054  0.39531568  0.03889261  1
  O  O77  1  0.36041176  0.09762960  0.99736091  1
