# generated using pymatgen
data_KCa4(BO3)3
_symmetry_space_group_name_H-M   'P 1'
_cell_length_a   6.56838834
_cell_length_b   6.68953236
_cell_length_c   10.72920808
_cell_angle_alpha   90.00000000
_cell_angle_beta   90.00000000
_cell_angle_gamma   119.40272939
_symmetry_Int_Tables_number   1
_chemical_formula_structural   KCa4(BO3)3
_chemical_formula_sum   'K2 Ca8 B6 O18'
_cell_volume   410.71006125
_cell_formula_units_Z   2
loop_
 _symmetry_equiv_pos_site_id
 _symmetry_equiv_pos_as_xyz
  1  'x, y, z'
loop_
 _atom_site_type_symbol
 _atom_site_label
 _atom_site_symmetry_multiplicity
 _atom_site_fract_x
 _atom_site_fract_y
 _atom_site_fract_z
 _atom_site_occupancy
  K  K0  1  0.26660929  0.16059865  0.25000000  1
  K  K1  1  0.10601064  0.83940135  0.75000000  1
  Ca  Ca2  1  0.71894931  0.00000000  0.00000000  1
  Ca  Ca3  1  0.29189922  0.42632087  0.52951263  1
  Ca  Ca4  1  0.60072969  0.30489683  0.75000000  1
  Ca  Ca5  1  0.86557835  0.57367913  0.47048737  1
  Ca  Ca6  1  0.86557835  0.57367913  0.02951263  1
  Ca  Ca7  1  0.29583287  0.69510317  0.25000000  1
  Ca  Ca8  1  0.71894931  0.00000000  0.50000000  1
  Ca  Ca9  1  0.29189922  0.42632087  0.97048737  1
  B  B10  1  0.69468167  0.65027395  0.25000000  1
  B  B11  1  0.86595009  0.24389320  0.25000000  1
  B  B12  1  0.29121929  0.00000000  0.00000000  1
  B  B13  1  0.29121929  0.00000000  0.50000000  1
  B  B14  1  0.04440772  0.34972605  0.75000000  1
  B  B15  1  0.62205689  0.75610680  0.75000000  1
  O  O16  1  0.65662766  0.66689525  0.63777217  1
  O  O17  1  0.56968553  0.93069854  0.75000000  1
  O  O18  1  0.29614582  0.79893853  0.47171955  1
  O  O19  1  0.08133748  0.00000000  0.00000000  1
  O  O20  1  0.29614582  0.79893853  0.02828045  1
  O  O21  1  0.95693925  0.38557493  0.63821026  1
  O  O22  1  0.49720729  0.20106147  0.97171955  1
  O  O23  1  0.22250867  0.29756953  0.75000000  1
  O  O24  1  0.57136432  0.61442507  0.36178974  1
  O  O25  1  0.95693925  0.38557493  0.86178974  1
  O  O26  1  0.98973241  0.33310475  0.36222783  1
  O  O27  1  0.98973241  0.33310475  0.13777217  1
  O  O28  1  0.57136432  0.61442507  0.13821026  1
  O  O29  1  0.63898699  0.06930146  0.25000000  1
  O  O30  1  0.49720729  0.20106147  0.52828045  1
  O  O31  1  0.08133748  0.00000000  0.50000000  1
  O  O32  1  0.65662766  0.66689525  0.86222783  1
  O  O33  1  0.92493914  0.70243047  0.25000000  1
