# generated using pymatgen
data_Ba4AgAuO6
_symmetry_space_group_name_H-M   'P 1'
_cell_length_a   5.89986826
_cell_length_b   7.32453436
_cell_length_c   11.63172524
_cell_angle_alpha   90.00000000
_cell_angle_beta   90.00000000
_cell_angle_gamma   113.75001847
_symmetry_Int_Tables_number   1
_chemical_formula_structural   Ba4AgAuO6
_chemical_formula_sum   'Ba8 Ag2 Au2 O12'
_cell_volume   460.08207927
_cell_formula_units_Z   2
loop_
 _symmetry_equiv_pos_site_id
 _symmetry_equiv_pos_as_xyz
  1  'x, y, z'
loop_
 _atom_site_type_symbol
 _atom_site_label
 _atom_site_symmetry_multiplicity
 _atom_site_fract_x
 _atom_site_fract_y
 _atom_site_fract_z
 _atom_site_occupancy
  Ba  Ba0  1  0.92137531  0.70854083  0.25000000  1
  Ba  Ba1  1  0.35374997  0.70749994  0.50000000  1
  Ba  Ba2  1  0.07862469  0.29145917  0.75000000  1
  Ba  Ba3  1  0.21283449  0.29145917  0.25000000  1
  Ba  Ba4  1  0.78716551  0.70854083  0.75000000  1
  Ba  Ba5  1  0.64625003  0.29250006  0.00000000  1
  Ba  Ba6  1  0.64625003  0.29250006  0.50000000  1
  Ba  Ba7  1  0.35374997  0.70749994  0.00000000  1
  Ag  Ag8  1  0.40310732  0.00000000  0.75000000  1
  Ag  Ag9  1  0.59689268  0.00000000  0.25000000  1
  Au  Au10  1  0.00000000  0.00000000  0.00000000  1
  Au  Au11  1  0.00000000  0.00000000  0.50000000  1
  O  O12  1  0.55934757  0.32002759  0.75000000  1
  O  O13  1  0.84532014  0.69064028  0.50000000  1
  O  O14  1  0.23931998  0.67997241  0.75000000  1
  O  O15  1  0.72960802  0.00000000  0.60900009  1
  O  O16  1  0.84532014  0.69064028  0.00000000  1
  O  O17  1  0.15467986  0.30935972  0.00000000  1
  O  O18  1  0.76068002  0.32002759  0.25000000  1
  O  O19  1  0.44065243  0.67997241  0.25000000  1
  O  O20  1  0.72960802  0.00000000  0.89099991  1
  O  O21  1  0.15467986  0.30935972  0.50000000  1
  O  O22  1  0.27039198  0.00000000  0.39099991  1
  O  O23  1  0.27039198  0.00000000  0.10900009  1
