# generated using pymatgen
data_BaNaCr2F9
_symmetry_space_group_name_H-M   'P 1'
_cell_length_a   5.54092773
_cell_length_b   7.44801832
_cell_length_c   17.67530173
_cell_angle_alpha   90.00000000
_cell_angle_beta   90.00000000
_cell_angle_gamma   91.51881463
_symmetry_Int_Tables_number   1
_chemical_formula_structural   BaNaCr2F9
_chemical_formula_sum   'Ba4 Na4 Cr8 F36'
_cell_volume   729.18454143
_cell_formula_units_Z   4
loop_
 _symmetry_equiv_pos_site_id
 _symmetry_equiv_pos_as_xyz
  1  'x, y, z'
loop_
 _atom_site_type_symbol
 _atom_site_label
 _atom_site_symmetry_multiplicity
 _atom_site_fract_x
 _atom_site_fract_y
 _atom_site_fract_z
 _atom_site_occupancy
  F  F0  1  0.08257735  0.90495167  0.06765843  1
  F  F1  1  0.41742265  0.59504833  0.56765843  1
  F  F2  1  0.91742265  0.09504833  0.93234157  1
  F  F3  1  0.58257735  0.40495167  0.43234157  1
  F  F4  1  0.31828166  0.93795453  0.20804255  1
  F  F5  1  0.18171834  0.56204547  0.70804255  1
  F  F6  1  0.68171834  0.06204547  0.79195745  1
  F  F7  1  0.81828166  0.43795453  0.29195745  1
  F  F8  1  0.74731095  0.74572086  0.46826157  1
  F  F9  1  0.75268905  0.75427914  0.96826157  1
  F  F10  1  0.25268905  0.25427914  0.53173843  1
  F  F11  1  0.24731095  0.24572086  0.03173843  1
  F  F12  1  0.50155824  0.69826259  0.33649386  1
  F  F13  1  0.99844176  0.80173741  0.83649386  1
  F  F14  1  0.49844176  0.30173741  0.66350614  1
  F  F15  1  0.00155824  0.19826259  0.16350614  1
  F  F16  1  0.96892174  0.13903141  0.41806865  1
  F  F17  1  0.53107826  0.36096859  0.91806865  1
  F  F18  1  0.03107826  0.86096859  0.58193135  1
  F  F19  1  0.46892174  0.63903141  0.08193135  1
  F  F20  1  0.41342859  0.99803202  0.92426518  1
  F  F21  1  0.08657141  0.50196798  0.42426518  1
  F  F22  1  0.58657141  0.00196798  0.07573482  1
  F  F23  1  0.91342859  0.49803202  0.57573482  1
  F  F24  1  0.29482156  0.28596841  0.31255635  1
  F  F25  1  0.20517844  0.21403159  0.81255635  1
  F  F26  1  0.70517844  0.71403159  0.68744365  1
  F  F27  1  0.79482156  0.78596841  0.18744365  1
  F  F28  1  0.05179786  0.44014990  0.91747930  1
  F  F29  1  0.44820214  0.05985010  0.41747930  1
  F  F30  1  0.94820214  0.55985010  0.08252070  1
  F  F31  1  0.55179786  0.94014990  0.58252070  1
  F  F32  1  0.48573826  0.27415497  0.16457414  1
  F  F33  1  0.01426174  0.22584503  0.66457414  1
  F  F34  1  0.51426174  0.72584503  0.83542586  1
  F  F35  1  0.98573826  0.77415497  0.33542586  1
  Na  Na36  1  0.74711001  0.31124513  0.04022483  1
  Na  Na37  1  0.75288999  0.18875487  0.54022483  1
  Na  Na38  1  0.24711001  0.81124513  0.45977517  1
  Na  Na39  1  0.25288999  0.68875487  0.95977517  1
  Cr  Cr40  1  0.26605015  0.27438570  0.41991259  1
  Cr  Cr41  1  0.72006177  0.91008490  0.87840386  1
  Cr  Cr42  1  0.27993823  0.08991510  0.12159614  1
  Cr  Cr43  1  0.22006177  0.41008490  0.62159614  1
  Cr  Cr44  1  0.76605015  0.77438570  0.08008741  1
  Cr  Cr45  1  0.73394985  0.72561430  0.58008741  1
  Cr  Cr46  1  0.77993823  0.58991510  0.37840386  1
  Cr  Cr47  1  0.23394985  0.22561430  0.91991259  1
  Ba  Ba48  1  0.72429052  0.06847486  0.28497736  1
  Ba  Ba49  1  0.77570948  0.43152514  0.78497736  1
  Ba  Ba50  1  0.27570948  0.93152514  0.71502264  1
  Ba  Ba51  1  0.22429052  0.56847486  0.21502264  1
