# generated using pymatgen
data_GdMg(BO2)5
_symmetry_space_group_name_H-M   'P 1'
_cell_length_a   7.65121559
_cell_length_b   8.72523539
_cell_length_c   9.43689516
_cell_angle_alpha   92.91790542
_cell_angle_beta   90.00000000
_cell_angle_gamma   90.00000000
_symmetry_Int_Tables_number   1
_chemical_formula_structural   GdMg(BO2)5
_chemical_formula_sum   'Gd4 Mg4 B20 O40'
_cell_volume   629.17765838
_cell_formula_units_Z   4
loop_
 _symmetry_equiv_pos_site_id
 _symmetry_equiv_pos_as_xyz
  1  'x, y, z'
loop_
 _atom_site_type_symbol
 _atom_site_label
 _atom_site_symmetry_multiplicity
 _atom_site_fract_x
 _atom_site_fract_y
 _atom_site_fract_z
 _atom_site_occupancy
  Gd  Gd0  1  0.31051142  0.81265657  0.76184388  1
  Gd  Gd1  1  0.68948858  0.18734343  0.23815612  1
  Gd  Gd2  1  0.18948858  0.31265657  0.26184388  1
  Gd  Gd3  1  0.81051142  0.68734343  0.73815612  1
  Mg  Mg4  1  0.91021686  0.60443468  0.12630437  1
  Mg  Mg5  1  0.58978314  0.10443468  0.62630437  1
  Mg  Mg6  1  0.08978314  0.39556532  0.87369563  1
  Mg  Mg7  1  0.41021686  0.89556532  0.37369563  1
  B  B8  1  0.90208547  0.15480048  0.00097875  1
  B  B9  1  0.57845794  0.58505790  0.23836147  1
  B  B10  1  0.31203811  0.56738478  0.08740110  1
  B  B11  1  0.82797553  0.48481353  0.39343611  1
  B  B12  1  0.46896665  0.22110757  0.94633815  1
  B  B13  1  0.03103335  0.72110757  0.44633815  1
  B  B14  1  0.92154206  0.08505790  0.73836147  1
  B  B15  1  0.59791453  0.65480048  0.50097875  1
  B  B16  1  0.81203811  0.93261522  0.41259890  1
  B  B17  1  0.17202447  0.51518647  0.60656389  1
  B  B18  1  0.68796189  0.43261522  0.91259890  1
  B  B19  1  0.18796189  0.06738478  0.58740110  1
  B  B20  1  0.32797553  0.01518647  0.10656389  1
  B  B21  1  0.96896665  0.27889243  0.55366185  1
  B  B22  1  0.42154206  0.41494210  0.76163853  1
  B  B23  1  0.53103335  0.77889243  0.05366185  1
  B  B24  1  0.07845794  0.91494210  0.26163853  1
  B  B25  1  0.09791453  0.84519952  0.99902125  1
  B  B26  1  0.40208547  0.34519952  0.49902125  1
  B  B27  1  0.67202447  0.98481353  0.89343611  1
  O  O28  1  0.58580112  0.49023207  0.80697503  1
  O  O29  1  0.15125478  0.81687013  0.36929814  1
  O  O30  1  0.53438573  0.68355102  0.36865808  1
  O  O31  1  0.08580112  0.00976793  0.69302497  1
  O  O32  1  0.96561427  0.18355102  0.86865808  1
  O  O33  1  0.89519488  0.32799252  0.41572797  1
  O  O34  1  0.45539875  0.26420055  0.38033427  1
  O  O35  1  0.03438573  0.81644898  0.13134192  1
  O  O36  1  0.22666863  0.95639095  0.98285143  1
  O  O37  1  0.97232548  0.58794036  0.35255846  1
  O  O38  1  0.62783317  0.31522513  0.99121198  1
  O  O39  1  0.77333137  0.04360905  0.01714857  1
  O  O40  1  0.52767452  0.08794036  0.85255846  1
  O  O41  1  0.54460125  0.73579945  0.61966573  1
  O  O42  1  0.84874522  0.18312987  0.63070186  1
  O  O43  1  0.46561427  0.31644898  0.63134192  1
  O  O44  1  0.95539875  0.23579945  0.11966573  1
  O  O45  1  0.34874522  0.31687013  0.86929814  1
  O  O46  1  0.21421857  0.03154178  0.23469637  1
  O  O47  1  0.60480512  0.82799252  0.91572797  1
  O  O48  1  0.02767452  0.41205964  0.64744154  1
  O  O49  1  0.37216683  0.68477487  0.00878802  1
  O  O50  1  0.84923250  0.50163274  0.92759819  1
  O  O51  1  0.34923250  0.99836726  0.57240181  1
  O  O52  1  0.91419888  0.99023207  0.30697503  1
  O  O53  1  0.87216683  0.81522513  0.49121198  1
  O  O54  1  0.65125478  0.68312987  0.13070186  1
  O  O55  1  0.10480512  0.67200748  0.58427203  1
  O  O56  1  0.04460125  0.76420055  0.88033427  1
  O  O57  1  0.15076750  0.49836726  0.07240181  1
  O  O58  1  0.72666863  0.54360905  0.51714857  1
  O  O59  1  0.41419888  0.50976793  0.19302497  1
  O  O60  1  0.71421857  0.46845822  0.26530363  1
  O  O61  1  0.12783317  0.18477487  0.50878802  1
  O  O62  1  0.27333137  0.45639095  0.48285143  1
  O  O63  1  0.78578143  0.96845822  0.76530363  1
  O  O64  1  0.39519488  0.17200748  0.08427203  1
  O  O65  1  0.47232548  0.91205964  0.14744154  1
  O  O66  1  0.28578143  0.53154178  0.73469637  1
  O  O67  1  0.65076750  0.00163274  0.42759819  1
