# generated using pymatgen
data_Sm3SiS6Cl
_symmetry_space_group_name_H-M   'P 1'
_cell_length_a   10.37551690
_cell_length_b   12.48409045
_cell_length_c   16.23512860
_cell_angle_alpha   90.00000000
_cell_angle_beta   90.00000000
_cell_angle_gamma   90.00000000
_symmetry_Int_Tables_number   1
_chemical_formula_structural   Sm3SiS6Cl
_chemical_formula_sum   'Sm24 Si8 S48 Cl8'
_cell_volume   2102.91821003
_cell_formula_units_Z   8
loop_
 _symmetry_equiv_pos_site_id
 _symmetry_equiv_pos_as_xyz
  1  'x, y, z'
loop_
 _atom_site_type_symbol
 _atom_site_label
 _atom_site_symmetry_multiplicity
 _atom_site_fract_x
 _atom_site_fract_y
 _atom_site_fract_z
 _atom_site_occupancy
  Sm  Sm0  1  0.75000000  0.88404112  0.12351716  1
  Sm  Sm1  1  0.75000000  0.38404112  0.37648284  1
  Sm  Sm2  1  0.95635221  0.31247064  0.59527241  1
  Sm  Sm3  1  0.96403212  0.61835358  0.11171714  1
  Sm  Sm4  1  0.75000000  0.12318894  0.86174981  1
  Sm  Sm5  1  0.25000000  0.11595888  0.87648284  1
  Sm  Sm6  1  0.45635221  0.18752936  0.09527241  1
  Sm  Sm7  1  0.53596788  0.11835358  0.38828286  1
  Sm  Sm8  1  0.04364779  0.68752936  0.40472759  1
  Sm  Sm9  1  0.45635221  0.68752936  0.40472759  1
  Sm  Sm10  1  0.54364779  0.31247064  0.59527241  1
  Sm  Sm11  1  0.03596788  0.88164642  0.61171714  1
  Sm  Sm12  1  0.54364779  0.81247064  0.90472759  1
  Sm  Sm13  1  0.95635221  0.81247064  0.90472759  1
  Sm  Sm14  1  0.04364779  0.18752936  0.09527241  1
  Sm  Sm15  1  0.53596788  0.61835358  0.11171714  1
  Sm  Sm16  1  0.96403212  0.11835358  0.38828286  1
  Sm  Sm17  1  0.03596788  0.38164642  0.88828286  1
  Sm  Sm18  1  0.75000000  0.62318894  0.63825019  1
  Sm  Sm19  1  0.25000000  0.37681106  0.36174981  1
  Sm  Sm20  1  0.46403212  0.88164642  0.61171714  1
  Sm  Sm21  1  0.46403212  0.38164642  0.88828286  1
  Sm  Sm22  1  0.25000000  0.61595888  0.62351716  1
  Sm  Sm23  1  0.25000000  0.87681106  0.13825019  1
  Si  Si24  1  0.25000000  0.11636170  0.25936182  1
  Si  Si25  1  0.25000000  0.61636170  0.24063818  1
  Si  Si26  1  0.75000000  0.88363830  0.74063818  1
  Si  Si27  1  0.25000000  0.33607938  0.72280016  1
  Si  Si28  1  0.75000000  0.66392062  0.27719984  1
  Si  Si29  1  0.25000000  0.83607938  0.77719984  1
  Si  Si30  1  0.75000000  0.16392062  0.22280016  1
  Si  Si31  1  0.75000000  0.38363830  0.75936182  1
  S  S32  1  0.25000000  0.38192957  0.59699644  1
  S  S33  1  0.41863772  0.02788934  0.22946090  1
  S  S34  1  0.98997367  0.65763442  0.56839309  1
  S  S35  1  0.51002633  0.65763442  0.56839309  1
  S  S36  1  0.75000000  0.72949564  0.80136203  1
  S  S37  1  0.75000000  0.11807043  0.09699644  1
  S  S38  1  0.91045082  0.76134347  0.24564418  1
  S  S39  1  0.25000000  0.47946246  0.79289334  1
  S  S40  1  0.48997367  0.34236558  0.43160691  1
  S  S41  1  0.08136228  0.52788934  0.27053910  1
  S  S42  1  0.25000000  0.64442445  0.11154912  1
  S  S43  1  0.25000000  0.14442445  0.38845088  1
  S  S44  1  0.01002633  0.34236558  0.43160691  1
  S  S45  1  0.41045082  0.23865653  0.75435582  1
  S  S46  1  0.08954918  0.73865653  0.74564418  1
  S  S47  1  0.75000000  0.52053754  0.20710666  1
  S  S48  1  0.75000000  0.85557555  0.61154912  1
  S  S49  1  0.08136228  0.02788934  0.22946090  1
  S  S50  1  0.75000000  0.68610202  0.02859525  1
  S  S51  1  0.25000000  0.97946246  0.70710666  1
  S  S52  1  0.41863772  0.52788934  0.27053910  1
  S  S53  1  0.58954918  0.26134347  0.25435582  1
  S  S54  1  0.58954918  0.76134347  0.24564418  1
  S  S55  1  0.58136228  0.47211066  0.72946090  1
  S  S56  1  0.25000000  0.56341805  0.45286400  1
  S  S57  1  0.75000000  0.18610202  0.47140475  1
  S  S58  1  0.08954918  0.23865653  0.75435582  1
  S  S59  1  0.75000000  0.93658195  0.95286400  1
  S  S60  1  0.75000000  0.35557555  0.88845088  1
  S  S61  1  0.48997367  0.84236558  0.06839309  1
  S  S62  1  0.41045082  0.73865653  0.74564418  1
  S  S63  1  0.25000000  0.27050436  0.19863797  1
  S  S64  1  0.75000000  0.02053754  0.29289334  1
  S  S65  1  0.75000000  0.43658195  0.54713600  1
  S  S66  1  0.98997367  0.15763442  0.93160691  1
  S  S67  1  0.25000000  0.81389798  0.52859525  1
  S  S68  1  0.75000000  0.61807043  0.40300356  1
  S  S69  1  0.25000000  0.31389798  0.97140475  1
  S  S70  1  0.01002633  0.84236558  0.06839309  1
  S  S71  1  0.91863772  0.97211066  0.77053910  1
  S  S72  1  0.58136228  0.97211066  0.77053910  1
  S  S73  1  0.91863772  0.47211066  0.72946090  1
  S  S74  1  0.25000000  0.06341805  0.04713600  1
  S  S75  1  0.75000000  0.22949564  0.69863797  1
  S  S76  1  0.25000000  0.77050436  0.30136203  1
  S  S77  1  0.25000000  0.88192957  0.90300356  1
  S  S78  1  0.51002633  0.15763442  0.93160691  1
  S  S79  1  0.91045082  0.26134347  0.25435582  1
  Cl  Cl80  1  0.45719465  0.10351224  0.56003151  1
  Cl  Cl81  1  0.45719465  0.60351224  0.93996849  1
  Cl  Cl82  1  0.95719465  0.39648776  0.06003151  1
  Cl  Cl83  1  0.04280535  0.60351224  0.93996849  1
  Cl  Cl84  1  0.95719465  0.89648776  0.43996849  1
  Cl  Cl85  1  0.54280535  0.89648776  0.43996849  1
  Cl  Cl86  1  0.54280535  0.39648776  0.06003151  1
  Cl  Cl87  1  0.04280535  0.10351224  0.56003151  1
