# generated using pymatgen
data_Li6CrS4
_symmetry_space_group_name_H-M   'P 1'
_cell_length_a   8.16292201
_cell_length_b   8.16353260
_cell_length_c   5.63560274
_cell_angle_alpha   90.00092583
_cell_angle_beta   89.99822191
_cell_angle_gamma   90.00129701
_symmetry_Int_Tables_number   1
_chemical_formula_structural   Li6CrS4
_chemical_formula_sum   'Li12 Cr2 S8'
_cell_volume   375.54687286
_cell_formula_units_Z   2
loop_
 _symmetry_equiv_pos_site_id
 _symmetry_equiv_pos_as_xyz
  1  'x, y, z'
loop_
 _atom_site_type_symbol
 _atom_site_label
 _atom_site_symmetry_multiplicity
 _atom_site_fract_x
 _atom_site_fract_y
 _atom_site_fract_z
 _atom_site_occupancy
  Li  Li0  1  0.02661512  0.52660304  0.74999471  1
  Li  Li1  1  0.02659014  0.97344453  0.75001552  1
  Li  Li2  1  0.25000576  0.25000607  0.69881527  1
  Li  Li3  1  0.24999464  0.25001245  0.19883031  1
  Li  Li4  1  0.47342661  0.52658317  0.74999895  1
  Li  Li5  1  0.47343636  0.97343542  0.75000092  1
  Li  Li6  1  0.52660277  0.02659086  0.24997229  1
  Li  Li7  1  0.52662640  0.47339586  0.24997467  1
  Li  Li8  1  0.75000445  0.75001575  0.30119455  1
  Li  Li9  1  0.75002211  0.74999713  0.80120345  1
  Li  Li10  1  0.97340116  0.02660089  0.24999104  1
  Li  Li11  1  0.97339896  0.47339898  0.24997279  1
  Cr  Cr12  1  0.24996869  0.74998640  0.25008773  1
  Cr  Cr13  1  0.75003893  0.25004615  0.74996422  1
  S  S14  1  0.00950372  0.25002138  0.95002560  1
  S  S15  1  0.25000975  0.00953111  0.45002606  1
  S  S16  1  0.25001788  0.49050700  0.45002562  1
  S  S17  1  0.49050750  0.25001140  0.95000285  1
  S  S18  1  0.50947288  0.75000090  0.04996058  1
  S  S19  1  0.75000637  0.99050099  0.54999603  1
  S  S20  1  0.75003057  0.50950335  0.54995772  1
  S  S21  1  0.99049925  0.74998720  0.04998810  1
