# generated using pymatgen
data_KLi4NbO5
_symmetry_space_group_name_H-M   'P 1'
_cell_length_a   5.86811398
_cell_length_b   5.98982521
_cell_length_c   8.33581372
_cell_angle_alpha   88.40455064
_cell_angle_beta   79.03958814
_cell_angle_gamma   60.84899239
_symmetry_Int_Tables_number   1
_chemical_formula_structural   KLi4NbO5
_chemical_formula_sum   'K2 Li8 Nb2 O10'
_cell_volume   250.49870309
_cell_formula_units_Z   2
loop_
 _symmetry_equiv_pos_site_id
 _symmetry_equiv_pos_as_xyz
  1  'x, y, z'
loop_
 _atom_site_type_symbol
 _atom_site_label
 _atom_site_symmetry_multiplicity
 _atom_site_fract_x
 _atom_site_fract_y
 _atom_site_fract_z
 _atom_site_occupancy
  K  K0  1  0.61507406  0.23764712  0.58370211  1
  K  K1  1  0.38492594  0.76235288  0.41629789  1
  Li  Li2  1  0.34025740  0.99939367  0.11989943  1
  Li  Li3  1  0.65974260  0.00060633  0.88010057  1
  Li  Li4  1  0.59741241  0.60857397  0.91323050  1
  Li  Li5  1  0.88305905  0.66782989  0.61164178  1
  Li  Li6  1  0.09098517  0.60413839  0.89514521  1
  Li  Li7  1  0.40258759  0.39142603  0.08676950  1
  Li  Li8  1  0.11694095  0.33217011  0.38835822  1
  Li  Li9  1  0.90901483  0.39586161  0.10485479  1
  Nb  Nb10  1  0.14248782  0.06261134  0.80169311  1
  Nb  Nb11  1  0.85751218  0.93738866  0.19830689  1
  O  O12  1  0.78000138  0.23544080  0.96797529  1
  O  O13  1  0.51895491  0.81718779  0.72300891  1
  O  O14  1  0.21999862  0.76455920  0.03202471  1
  O  O15  1  0.26001776  0.24400035  0.94755840  1
  O  O16  1  0.48104509  0.18281221  0.27699109  1
  O  O17  1  0.92846094  0.70590851  0.36541382  1
  O  O18  1  0.02182521  0.84045586  0.71956240  1
  O  O19  1  0.73998224  0.75599965  0.05244160  1
  O  O20  1  0.07153906  0.29409149  0.63458618  1
  O  O21  1  0.97817479  0.15954414  0.28043760  1
