# generated using pymatgen
data_Tb9(SbO)5
_symmetry_space_group_name_H-M   'P 1'
_cell_length_a   8.92553480
_cell_length_b   9.92464812
_cell_length_c   9.92464812
_cell_angle_alpha   90.00000000
_cell_angle_beta   90.00000000
_cell_angle_gamma   90.00000000
_symmetry_Int_Tables_number   1
_chemical_formula_structural   Tb9(SbO)5
_chemical_formula_sum   'Tb18 Sb10 O10'
_cell_volume   879.15304180
_cell_formula_units_Z   2
loop_
 _symmetry_equiv_pos_site_id
 _symmetry_equiv_pos_as_xyz
  1  'x, y, z'
loop_
 _atom_site_type_symbol
 _atom_site_label
 _atom_site_symmetry_multiplicity
 _atom_site_fract_x
 _atom_site_fract_y
 _atom_site_fract_z
 _atom_site_occupancy
  Tb  Tb0  1  0.34189469  0.64541932  0.45544175  1
  Tb  Tb1  1  0.67164430  0.75000000  0.75000000  1
  Tb  Tb2  1  0.65810531  0.35458068  0.54455825  1
  Tb  Tb3  1  0.65810531  0.14541932  0.95544175  1
  Tb  Tb4  1  0.00145961  0.66751781  0.97593955  1
  Tb  Tb5  1  0.34189469  0.04455825  0.64541932  1
  Tb  Tb6  1  0.65810531  0.95544175  0.35458068  1
  Tb  Tb7  1  0.34189469  0.45544175  0.85458068  1
  Tb  Tb8  1  0.32835570  0.25000000  0.25000000  1
  Tb  Tb9  1  0.65810531  0.54455825  0.14541932  1
  Tb  Tb10  1  0.00145961  0.83248219  0.52406045  1
  Tb  Tb11  1  0.99854039  0.33248219  0.02406045  1
  Tb  Tb12  1  0.99854039  0.16751781  0.47593955  1
  Tb  Tb13  1  0.34189469  0.85458068  0.04455825  1
  Tb  Tb14  1  0.00145961  0.97593955  0.83248219  1
  Tb  Tb15  1  0.99854039  0.02406045  0.16751781  1
  Tb  Tb16  1  0.99854039  0.47593955  0.33248219  1
  Tb  Tb17  1  0.00145961  0.52406045  0.66751781  1
  Sb  Sb18  1  0.69836723  0.44554517  0.84563244  1
  Sb  Sb19  1  0.30163277  0.55445483  0.15436756  1
  Sb  Sb20  1  0.30163277  0.15436756  0.94554517  1
  Sb  Sb21  1  0.68199820  0.25000000  0.25000000  1
  Sb  Sb22  1  0.69836723  0.65436756  0.44554517  1
  Sb  Sb23  1  0.69836723  0.84563244  0.05445483  1
  Sb  Sb24  1  0.30163277  0.34563244  0.55445483  1
  Sb  Sb25  1  0.69836723  0.05445483  0.65436756  1
  Sb  Sb26  1  0.30163277  0.94554517  0.34563244  1
  Sb  Sb27  1  0.31800180  0.75000000  0.75000000  1
  O  O28  1  0.08705811  0.62989202  0.47493966  1
  O  O29  1  0.91294189  0.12989202  0.97493966  1
  O  O30  1  0.93563900  0.75000000  0.75000000  1
  O  O31  1  0.08705811  0.47493966  0.87010798  1
  O  O32  1  0.06436100  0.25000000  0.25000000  1
  O  O33  1  0.91294189  0.52506034  0.12989202  1
  O  O34  1  0.91294189  0.97493966  0.37010798  1
  O  O35  1  0.08705811  0.02506034  0.62989202  1
  O  O36  1  0.08705811  0.87010798  0.02506034  1
  O  O37  1  0.91294189  0.37010798  0.52506034  1
