# generated using pymatgen
data_Nd5As4(ClO4)3
_symmetry_space_group_name_H-M   'P 1'
_cell_length_a   5.48944211
_cell_length_b   10.41949119
_cell_length_c   14.18108656
_cell_angle_alpha   93.92873082
_cell_angle_beta   90.00000000
_cell_angle_gamma   90.00000000
_symmetry_Int_Tables_number   1
_chemical_formula_structural   Nd5As4(ClO4)3
_chemical_formula_sum   'Nd10 As8 Cl6 O24'
_cell_volume   809.21226451
_cell_formula_units_Z   2
loop_
 _symmetry_equiv_pos_site_id
 _symmetry_equiv_pos_as_xyz
  1  'x, y, z'
loop_
 _atom_site_type_symbol
 _atom_site_label
 _atom_site_symmetry_multiplicity
 _atom_site_fract_x
 _atom_site_fract_y
 _atom_site_fract_z
 _atom_site_occupancy
  Nd  Nd0  1  0.23544000  0.91861480  0.41428702  1
  Nd  Nd1  1  0.25595519  0.19522717  0.03182766  1
  Nd  Nd2  1  0.76456000  0.41861480  0.91428702  1
  Nd  Nd3  1  0.29194100  0.25000000  0.75000000  1
  Nd  Nd4  1  0.25595519  0.30477283  0.46817234  1
  Nd  Nd5  1  0.74404481  0.80477283  0.96817234  1
  Nd  Nd6  1  0.76456000  0.08138520  0.58571298  1
  Nd  Nd7  1  0.70805900  0.75000000  0.25000000  1
  Nd  Nd8  1  0.23544000  0.58138520  0.08571298  1
  Nd  Nd9  1  0.74404481  0.69522717  0.53182766  1
  As  As10  1  0.73838393  0.40905493  0.63823167  1
  As  As11  1  0.26161607  0.90905493  0.13823167  1
  As  As12  1  0.23675042  0.89301066  0.64970232  1
  As  As13  1  0.26161607  0.59094507  0.36176833  1
  As  As14  1  0.76324958  0.39301066  0.14970232  1
  As  As15  1  0.76324958  0.10698934  0.35029768  1
  As  As16  1  0.23675042  0.60698934  0.85029768  1
  As  As17  1  0.73838393  0.09094507  0.86176833  1
  Cl  Cl18  1  0.24634407  0.92323606  0.91997193  1
  Cl  Cl19  1  0.24634407  0.57676394  0.58002807  1
  Cl  Cl20  1  0.25230116  0.25000000  0.25000000  1
  Cl  Cl21  1  0.74769884  0.75000000  0.75000000  1
  Cl  Cl22  1  0.75365593  0.42323606  0.41997193  1
  Cl  Cl23  1  0.75365593  0.07676394  0.08002807  1
  O  O24  1  0.51150979  0.10858304  0.43631644  1
  O  O25  1  0.99928532  0.62952553  0.94540323  1
  O  O26  1  0.00071468  0.12952553  0.44540323  1
  O  O27  1  0.48849021  0.60858304  0.93631644  1
  O  O28  1  0.34776075  0.60457578  0.24214874  1
  O  O29  1  0.82717738  0.56219562  0.15549953  1
  O  O30  1  0.99422267  0.19926944  0.87926035  1
  O  O31  1  0.00577733  0.69926944  0.37926035  1
  O  O32  1  0.00071468  0.37047447  0.05459677  1
  O  O33  1  0.17282262  0.06219562  0.65549953  1
  O  O34  1  0.65223925  0.39542422  0.75785126  1
  O  O35  1  0.00577733  0.80073056  0.12073965  1
  O  O36  1  0.99422267  0.30073056  0.62073965  1
  O  O37  1  0.99928532  0.87047447  0.55459677  1
  O  O38  1  0.48664910  0.71392898  0.40310697  1
  O  O39  1  0.51150979  0.39141696  0.06368356  1
  O  O40  1  0.51335090  0.28607102  0.59689303  1
  O  O41  1  0.34776075  0.89542422  0.25785126  1
  O  O42  1  0.48849021  0.89141696  0.56368356  1
  O  O43  1  0.82717738  0.93780438  0.34450047  1
  O  O44  1  0.65223925  0.10457578  0.74214874  1
  O  O45  1  0.17282262  0.43780438  0.84450047  1
  O  O46  1  0.48664910  0.78607102  0.09689303  1
  O  O47  1  0.51335090  0.21392898  0.90310697  1
