# generated using pymatgen
data_Nd3CuSiS7
_symmetry_space_group_name_H-M   'P 1'
_cell_length_a   10.19380365
_cell_length_b   10.19380367
_cell_length_c   5.79346510
_cell_angle_alpha   90.00000000
_cell_angle_beta   90.00000000
_cell_angle_gamma   119.99999992
_symmetry_Int_Tables_number   1
_chemical_formula_structural   Nd3CuSiS7
_chemical_formula_sum   'Nd6 Cu2 Si2 S14'
_cell_volume   521.36461958
_cell_formula_units_Z   2
loop_
 _symmetry_equiv_pos_site_id
 _symmetry_equiv_pos_as_xyz
  1  'x, y, z'
loop_
 _atom_site_type_symbol
 _atom_site_label
 _atom_site_symmetry_multiplicity
 _atom_site_fract_x
 _atom_site_fract_y
 _atom_site_fract_z
 _atom_site_occupancy
  Nd  Nd0  1  0.23207596  0.87537754  0.74745021  1
  Nd  Nd1  1  0.35669822  0.23207555  0.24745095  1
  Nd  Nd2  1  0.12462246  0.35669842  0.74745021  1
  Nd  Nd3  1  0.76792445  0.12462267  0.24745095  1
  Nd  Nd4  1  0.87537733  0.64330178  0.24745095  1
  Nd  Nd5  1  0.64330158  0.76792404  0.74745021  1
  Cu  Cu6  1  0.00000000  0.00000000  0.22105009  1
  Si  Si7  1  0.66666700  0.33333300  0.83327038  1
  Cu  Cu8  1  0.00000000  0.00000000  0.72103982  1
  Si  Si9  1  0.33333300  0.66666700  0.33327056  1
  S  S10  1  0.52446104  0.11233699  0.97715789  1
  S  S11  1  0.83557322  0.08746875  0.73270120  1
  S  S12  1  0.11233718  0.58787612  0.47715800  1
  S  S13  1  0.47553894  0.88766282  0.47715800  1
  S  S14  1  0.16442618  0.91253141  0.23270101  1
  S  S15  1  0.66666700  0.33333300  0.46845573  1
  S  S16  1  0.91253125  0.74810446  0.73270120  1
  S  S17  1  0.33333300  0.66666700  0.96845563  1
  S  S18  1  0.58787595  0.47553896  0.97715789  1
  S  S19  1  0.74810523  0.83557382  0.23270101  1
  S  S20  1  0.41212388  0.52446106  0.47715800  1
  S  S21  1  0.88766301  0.41212405  0.97715789  1
  S  S22  1  0.08746859  0.25189477  0.23270101  1
  S  S23  1  0.25189554  0.16442678  0.73270120  1
