# generated using pymatgen
data_SnP2(Cl5O)2
_symmetry_space_group_name_H-M   'P 1'
_cell_length_a   8.29107060
_cell_length_b   14.95523850
_cell_length_c   15.06508043
_cell_angle_alpha   90.00000000
_cell_angle_beta   90.00000000
_cell_angle_gamma   90.00000000
_symmetry_Int_Tables_number   1
_chemical_formula_structural   SnP2(Cl5O)2
_chemical_formula_sum   'Sn4 P8 Cl40 O8'
_cell_volume   1867.99371755
_cell_formula_units_Z   4
loop_
 _symmetry_equiv_pos_site_id
 _symmetry_equiv_pos_as_xyz
  1  'x, y, z'
loop_
 _atom_site_type_symbol
 _atom_site_label
 _atom_site_symmetry_multiplicity
 _atom_site_fract_x
 _atom_site_fract_y
 _atom_site_fract_z
 _atom_site_occupancy
  Sn  Sn0  1  0.50000000  0.25446791  0.65726938  1
  Sn  Sn1  1  0.50000000  0.74553209  0.34273062  1
  Sn  Sn2  1  0.00000000  0.75446791  0.84273062  1
  Sn  Sn3  1  0.00000000  0.24553209  0.15726938  1
  P  P4  1  0.50000000  0.41394848  0.84366001  1
  P  P5  1  0.00000000  0.60744695  0.64122441  1
  P  P6  1  0.00000000  0.08605152  0.34366001  1
  P  P7  1  0.50000000  0.10744695  0.85877559  1
  P  P8  1  0.00000000  0.91394848  0.65633999  1
  P  P9  1  0.50000000  0.89255305  0.14122441  1
  P  P10  1  0.50000000  0.58605152  0.15633999  1
  P  P11  1  0.00000000  0.39255305  0.35877559  1
  Cl  Cl12  1  0.69144470  0.62425869  0.08636694  1
  Cl  Cl13  1  0.00000000  0.04678504  0.65171493  1
  Cl  Cl14  1  0.28254417  0.76057271  0.81561525  1
  Cl  Cl15  1  0.00000000  0.95321496  0.34828507  1
  Cl  Cl16  1  0.50000000  0.10959223  0.58917466  1
  Cl  Cl17  1  0.28254417  0.23942729  0.18438475  1
  Cl  Cl18  1  0.50000000  0.89040777  0.41082534  1
  Cl  Cl19  1  0.69070455  0.97181838  0.15615994  1
  Cl  Cl20  1  0.69070455  0.02818162  0.84384006  1
  Cl  Cl21  1  0.30929545  0.97181838  0.15615994  1
  Cl  Cl22  1  0.21745583  0.73942729  0.31561525  1
  Cl  Cl23  1  0.00000000  0.60959223  0.91082534  1
  Cl  Cl24  1  0.30855530  0.62425869  0.08636694  1
  Cl  Cl25  1  0.00000000  0.85199846  0.96788855  1
  Cl  Cl26  1  0.78254417  0.26057271  0.68438475  1
  Cl  Cl27  1  0.80855530  0.12425869  0.41363306  1
  Cl  Cl28  1  0.50000000  0.85647851  0.01431115  1
  Cl  Cl29  1  0.80855530  0.87574131  0.58636694  1
  Cl  Cl30  1  0.50000000  0.54678504  0.84828507  1
  Cl  Cl31  1  0.71745583  0.76057271  0.81561525  1
  Cl  Cl32  1  0.00000000  0.39040777  0.08917466  1
  Cl  Cl33  1  0.50000000  0.14352149  0.98568885  1
  Cl  Cl34  1  0.21745583  0.26057271  0.68438475  1
  Cl  Cl35  1  0.19070455  0.52818162  0.65615994  1
  Cl  Cl36  1  0.00000000  0.35647851  0.48568885  1
  Cl  Cl37  1  0.50000000  0.35199846  0.53211145  1
  Cl  Cl38  1  0.69144470  0.37574131  0.91363306  1
  Cl  Cl39  1  0.50000000  0.64800154  0.46788855  1
  Cl  Cl40  1  0.19144470  0.12425869  0.41363306  1
  Cl  Cl41  1  0.78254417  0.73942729  0.31561525  1
  Cl  Cl42  1  0.30855530  0.37574131  0.91363306  1
  Cl  Cl43  1  0.00000000  0.14800154  0.03211145  1
  Cl  Cl44  1  0.80929545  0.52818162  0.65615994  1
  Cl  Cl45  1  0.30929545  0.02818162  0.84384006  1
  Cl  Cl46  1  0.19144470  0.87574131  0.58636694  1
  Cl  Cl47  1  0.19070455  0.47181838  0.34384006  1
  Cl  Cl48  1  0.80929545  0.47181838  0.34384006  1
  Cl  Cl49  1  0.00000000  0.64352149  0.51431115  1
  Cl  Cl50  1  0.50000000  0.45321496  0.15171493  1
  Cl  Cl51  1  0.71745583  0.23942729  0.18438475  1
  O  O52  1  0.00000000  0.88205843  0.75002121  1
  O  O53  1  0.00000000  0.68691139  0.70034380  1
  O  O54  1  0.00000000  0.11794157  0.24997879  1
  O  O55  1  0.50000000  0.81308861  0.20034380  1
  O  O56  1  0.00000000  0.31308861  0.29965620  1
  O  O57  1  0.50000000  0.61794157  0.25002121  1
  O  O58  1  0.50000000  0.18691139  0.79965620  1
  O  O59  1  0.50000000  0.38205843  0.74997879  1
