# generated using pymatgen
data_CsSmGeS4
_symmetry_space_group_name_H-M   'P 1'
_cell_length_a   6.59068325
_cell_length_b   6.86142467
_cell_length_c   18.08606333
_cell_angle_alpha   90.00000000
_cell_angle_beta   90.00000000
_cell_angle_gamma   90.00000000
_symmetry_Int_Tables_number   1
_chemical_formula_structural   CsSmGeS4
_chemical_formula_sum   'Cs4 Sm4 Ge4 S16'
_cell_volume   817.87849045
_cell_formula_units_Z   4
loop_
 _symmetry_equiv_pos_site_id
 _symmetry_equiv_pos_as_xyz
  1  'x, y, z'
loop_
 _atom_site_type_symbol
 _atom_site_label
 _atom_site_symmetry_multiplicity
 _atom_site_fract_x
 _atom_site_fract_y
 _atom_site_fract_z
 _atom_site_occupancy
  Cs  Cs0  1  0.49472138  0.99388627  0.53229264  1
  Cs  Cs1  1  0.50527862  0.49388627  0.96770736  1
  Cs  Cs2  1  0.00527862  0.00611373  0.03229264  1
  Cs  Cs3  1  0.99472138  0.50611373  0.46770736  1
  Sm  Sm4  1  0.70693107  0.48024368  0.22745926  1
  Sm  Sm5  1  0.79306893  0.51975632  0.72745926  1
  Sm  Sm6  1  0.20693107  0.01975632  0.77254074  1
  Sm  Sm7  1  0.29306893  0.98024368  0.27254074  1
  Ge  Ge8  1  0.20828834  0.51511442  0.16671410  1
  Ge  Ge9  1  0.70828834  0.98488558  0.83328590  1
  Ge  Ge10  1  0.79171166  0.01511442  0.33328590  1
  Ge  Ge11  1  0.29171166  0.48488558  0.66671410  1
  S  S12  1  0.89874218  0.08079238  0.21899089  1
  S  S13  1  0.60039643  0.74651570  0.34470910  1
  S  S14  1  0.39874218  0.41920762  0.78100911  1
  S  S15  1  0.89960357  0.25348430  0.84470910  1
  S  S16  1  0.43772433  0.75060950  0.14701289  1
  S  S17  1  0.39960357  0.24651570  0.15529090  1
  S  S18  1  0.10039643  0.75348430  0.65529090  1
  S  S19  1  0.93772433  0.74939050  0.85298711  1
  S  S20  1  0.06227567  0.24939050  0.64701289  1
  S  S21  1  0.94051079  0.51143281  0.09360418  1
  S  S22  1  0.56227567  0.25060950  0.35298711  1
  S  S23  1  0.10125782  0.58079238  0.28100911  1
  S  S24  1  0.60125782  0.91920762  0.71899089  1
  S  S25  1  0.55948921  0.48856719  0.59360418  1
  S  S26  1  0.44051079  0.98856719  0.90639582  1
  S  S27  1  0.05948921  0.01143281  0.40639582  1
