# generated using pymatgen
data_Sm3CuSnS7
_symmetry_space_group_name_H-M   'P 1'
_cell_length_a   10.01613229
_cell_length_b   10.01613226
_cell_length_c   6.16163370
_cell_angle_alpha   90.00000000
_cell_angle_beta   90.00000000
_cell_angle_gamma   120.00000009
_symmetry_Int_Tables_number   1
_chemical_formula_structural   Sm3CuSnS7
_chemical_formula_sum   'Sm6 Cu2 Sn2 S14'
_cell_volume   535.33619849
_cell_formula_units_Z   2
loop_
 _symmetry_equiv_pos_site_id
 _symmetry_equiv_pos_as_xyz
  1  'x, y, z'
loop_
 _atom_site_type_symbol
 _atom_site_label
 _atom_site_symmetry_multiplicity
 _atom_site_fract_x
 _atom_site_fract_y
 _atom_site_fract_z
 _atom_site_occupancy
  Sm  Sm0  1  0.14162301  0.78362682  0.76452641  1
  Sm  Sm1  1  0.21637318  0.35799620  0.76452641  1
  Sm  Sm2  1  0.85837699  0.21637318  0.26452641  1
  Sm  Sm3  1  0.35799620  0.14162301  0.26452641  1
  Sm  Sm4  1  0.64200380  0.85837699  0.76452641  1
  Sm  Sm5  1  0.78362682  0.64200380  0.26452641  1
  Cu  Cu6  1  0.00000000  0.00000000  0.19357145  1
  Cu  Cu7  1  0.00000000  0.00000000  0.69357145  1
  Sn  Sn8  1  0.66666700  0.33333300  0.83409399  1
  Sn  Sn9  1  0.33333300  0.66666700  0.33409399  1
  S  S10  1  0.91444681  0.48336313  0.01021974  1
  S  S11  1  0.10546522  0.84808013  0.20915996  1
  S  S12  1  0.43108368  0.91444681  0.51021974  1
  S  S13  1  0.84808013  0.74261492  0.70915996  1
  S  S14  1  0.15191987  0.25738508  0.20915996  1
  S  S15  1  0.56891632  0.08555319  0.01021974  1
  S  S16  1  0.51663687  0.43108368  0.01021974  1
  S  S17  1  0.48336313  0.56891632  0.51021974  1
  S  S18  1  0.66666700  0.33333300  0.44691619  1
  S  S19  1  0.89453478  0.15191987  0.70915996  1
  S  S20  1  0.33333300  0.66666700  0.94691619  1
  S  S21  1  0.74261492  0.89453478  0.20915996  1
  S  S22  1  0.25738508  0.10546522  0.70915996  1
  S  S23  1  0.08555319  0.51663687  0.51021974  1
