# generated using pymatgen
data_KP(OF)2
_symmetry_space_group_name_H-M   'P 1'
_cell_length_a   6.28804325
_cell_length_b   7.76933475
_cell_length_c   8.15913209
_cell_angle_alpha   90.00000000
_cell_angle_beta   90.00000000
_cell_angle_gamma   90.00000000
_symmetry_Int_Tables_number   1
_chemical_formula_structural   KP(OF)2
_chemical_formula_sum   'K4 P4 O8 F8'
_cell_volume   398.60552872
_cell_formula_units_Z   4
loop_
 _symmetry_equiv_pos_site_id
 _symmetry_equiv_pos_as_xyz
  1  'x, y, z'
loop_
 _atom_site_type_symbol
 _atom_site_label
 _atom_site_symmetry_multiplicity
 _atom_site_fract_x
 _atom_site_fract_y
 _atom_site_fract_z
 _atom_site_occupancy
  K  K0  1  0.25000000  0.14494086  0.14859544  1
  K  K1  1  0.75000000  0.64494086  0.35140456  1
  K  K2  1  0.25000000  0.35505914  0.64859544  1
  K  K3  1  0.75000000  0.85505914  0.85140456  1
  P  P4  1  0.25000000  0.80841050  0.59183511  1
  P  P5  1  0.75000000  0.19158950  0.40816489  1
  P  P6  1  0.75000000  0.30841050  0.90816489  1
  P  P7  1  0.25000000  0.69158950  0.09183511  1
  O  O8  1  0.04208743  0.71709209  0.59768319  1
  O  O9  1  0.95791257  0.28290791  0.40231681  1
  O  O10  1  0.54208743  0.28290791  0.40231681  1
  O  O11  1  0.45791257  0.71709209  0.59768319  1
  O  O12  1  0.45791257  0.78290791  0.09768319  1
  O  O13  1  0.95791257  0.21709209  0.90231681  1
  O  O14  1  0.04208743  0.78290791  0.09768319  1
  O  O15  1  0.54208743  0.21709209  0.90231681  1
  F  F16  1  0.75000000  0.43638589  0.06167018  1
  F  F17  1  0.75000000  0.04552943  0.27008244  1
  F  F18  1  0.75000000  0.45447057  0.77008244  1
  F  F19  1  0.75000000  0.06361411  0.56167018  1
  F  F20  1  0.25000000  0.95447057  0.72991756  1
  F  F21  1  0.25000000  0.54552943  0.22991756  1
  F  F22  1  0.25000000  0.93638589  0.43832982  1
  F  F23  1  0.25000000  0.56361411  0.93832982  1
