# generated using pymatgen
data_Er2B2Cl2O5
_symmetry_space_group_name_H-M   'P 1'
_cell_length_a   5.28753544
_cell_length_b   10.08812469
_cell_length_c   14.90061811
_cell_angle_alpha   90.00000000
_cell_angle_beta   90.00000000
_cell_angle_gamma   90.00000000
_symmetry_Int_Tables_number   1
_chemical_formula_structural   Er2B2Cl2O5
_chemical_formula_sum   'Er8 B8 Cl8 O20'
_cell_volume   794.81859144
_cell_formula_units_Z   4
loop_
 _symmetry_equiv_pos_site_id
 _symmetry_equiv_pos_as_xyz
  1  'x, y, z'
loop_
 _atom_site_type_symbol
 _atom_site_label
 _atom_site_symmetry_multiplicity
 _atom_site_fract_x
 _atom_site_fract_y
 _atom_site_fract_z
 _atom_site_occupancy
  Er  Er0  1  0.50000000  0.53088388  0.12089834  1
  Er  Er1  1  0.50000000  0.96911612  0.62089834  1
  Er  Er2  1  0.50000000  0.43079614  0.39081686  1
  Er  Er3  1  0.50000000  0.06920386  0.89081686  1
  Er  Er4  1  0.50000000  0.46911612  0.87910166  1
  Er  Er5  1  0.50000000  0.93079614  0.10918314  1
  Er  Er6  1  0.50000000  0.03088388  0.37910166  1
  Er  Er7  1  0.50000000  0.56920386  0.60918314  1
  B  B8  1  0.50000000  0.30212817  0.73273291  1
  B  B9  1  0.50000000  0.25541020  0.06531454  1
  B  B10  1  0.50000000  0.74458980  0.93468546  1
  B  B11  1  0.50000000  0.19787183  0.23273291  1
  B  B12  1  0.50000000  0.75541020  0.43468546  1
  B  B13  1  0.50000000  0.24458980  0.56531454  1
  B  B14  1  0.50000000  0.69787183  0.26726709  1
  B  B15  1  0.50000000  0.80212817  0.76726709  1
  Cl  Cl16  1  0.00000000  0.41283287  0.38966099  1
  Cl  Cl17  1  0.00000000  0.00735956  0.36892739  1
  Cl  Cl18  1  0.00000000  0.91283287  0.11033901  1
  Cl  Cl19  1  0.00000000  0.50735956  0.13107261  1
  Cl  Cl20  1  0.00000000  0.49264044  0.86892739  1
  Cl  Cl21  1  0.00000000  0.58716713  0.61033901  1
  Cl  Cl22  1  0.00000000  0.08716713  0.88966099  1
  Cl  Cl23  1  0.00000000  0.99264044  0.63107261  1
  O  O24  1  0.50000000  0.86660127  0.48753045  1
  O  O25  1  0.50000000  0.24366954  0.31904248  1
  O  O26  1  0.50000000  0.78725737  0.34062261  1
  O  O27  1  0.50000000  0.56267230  0.27565857  1
  O  O28  1  0.50000000  0.93732770  0.77565857  1
  O  O29  1  0.50000000  0.06267230  0.22434143  1
  O  O30  1  0.50000000  0.71274263  0.84062261  1
  O  O31  1  0.50000000  0.13339873  0.51246955  1
  O  O32  1  0.50000000  0.74366954  0.18095752  1
  O  O33  1  0.50000000  0.21274263  0.65937739  1
  O  O34  1  0.50000000  0.25633046  0.81904248  1
  O  O35  1  0.50000000  0.62836892  0.46406318  1
  O  O36  1  0.50000000  0.75633046  0.68095752  1
  O  O37  1  0.50000000  0.37163108  0.53593682  1
  O  O38  1  0.50000000  0.28725737  0.15937739  1
  O  O39  1  0.50000000  0.12836892  0.03593682  1
  O  O40  1  0.50000000  0.63339873  0.98753045  1
  O  O41  1  0.50000000  0.36660127  0.01246955  1
  O  O42  1  0.50000000  0.87163108  0.96406318  1
  O  O43  1  0.50000000  0.43732770  0.72434143  1
