# generated using pymatgen
data_Eu5Si3O12F
_symmetry_space_group_name_H-M   'P 1'
_cell_length_a   9.70390933
_cell_length_b   9.70390938
_cell_length_c   7.10643693
_cell_angle_alpha   90.00000000
_cell_angle_beta   90.00000000
_cell_angle_gamma   119.99999984
_symmetry_Int_Tables_number   1
_chemical_formula_structural   Eu5Si3O12F
_chemical_formula_sum   'Eu10 Si6 O24 F2'
_cell_volume   579.53010389
_cell_formula_units_Z   2
loop_
 _symmetry_equiv_pos_site_id
 _symmetry_equiv_pos_as_xyz
  1  'x, y, z'
loop_
 _atom_site_type_symbol
 _atom_site_label
 _atom_site_symmetry_multiplicity
 _atom_site_fract_x
 _atom_site_fract_y
 _atom_site_fract_z
 _atom_site_occupancy
  Eu  Eu0  1  0.25358989  0.24944983  0.75000000  1
  Eu  Eu1  1  0.75055017  0.00414007  0.75000000  1
  Eu  Eu2  1  0.66666700  0.33333300  0.50021557  1
  Eu  Eu3  1  0.33333300  0.66666700  1.00021557  1
  Eu  Eu4  1  0.99585993  0.74641011  0.75000000  1
  Eu  Eu5  1  0.66666700  0.33333300  -0.00021557  1
  Eu  Eu6  1  0.74641011  0.75055017  0.25000000  1
  Eu  Eu7  1  0.00414007  0.25358989  0.25000000  1
  Eu  Eu8  1  0.33333300  0.66666700  0.49978443  1
  Eu  Eu9  1  0.24944983  0.99585993  0.25000000  1
  Si  Si10  1  0.63187646  0.02819362  0.25000000  1
  Si  Si11  1  0.60368285  0.63187646  0.75000000  1
  Si  Si12  1  0.97180638  0.60368285  0.25000000  1
  Si  Si13  1  0.02819362  0.39631715  0.75000000  1
  Si  Si14  1  0.39631715  0.36812354  0.25000000  1
  Si  Si15  1  0.36812354  0.97180638  0.75000000  1
  O  O16  1  0.12577949  0.59335161  0.75000000  1
  O  O17  1  0.24992374  0.90981294  0.56537295  1
  O  O18  1  0.32209530  0.48672047  0.25000000  1
  O  O19  1  0.75007626  0.09018706  0.06537295  1
  O  O20  1  0.65988920  0.75007626  0.93462705  1
  O  O21  1  0.40664839  0.53242788  0.75000000  1
  O  O22  1  0.09018706  0.34011080  0.56537295  1
  O  O23  1  0.53242788  0.12577949  0.25000000  1
  O  O24  1  0.90981294  0.65988920  0.43462705  1
  O  O25  1  0.59335161  0.46757212  0.25000000  1
  O  O26  1  0.48672047  0.16462517  0.75000000  1
  O  O27  1  0.34011080  0.24992374  0.43462705  1
  O  O28  1  0.46757212  0.87422051  0.75000000  1
  O  O29  1  0.16462517  0.67790470  0.25000000  1
  O  O30  1  0.83537483  0.32209530  0.75000000  1
  O  O31  1  0.24992374  0.90981294  0.93462705  1
  O  O32  1  0.09018706  0.34011080  0.93462705  1
  O  O33  1  0.75007626  0.09018706  0.43462705  1
  O  O34  1  0.67790470  0.51327953  0.75000000  1
  O  O35  1  0.65988920  0.75007626  0.56537295  1
  O  O36  1  0.87422051  0.40664839  0.25000000  1
  O  O37  1  0.34011080  0.24992374  0.06537295  1
  O  O38  1  0.51327953  0.83537483  0.25000000  1
  O  O39  1  0.90981294  0.65988920  0.06537295  1
  F  F40  1  0.00000000  0.00000000  0.25000000  1
  F  F41  1  0.00000000  0.00000000  0.75000000  1
