# generated using pymatgen
data_NiP2O7
_symmetry_space_group_name_H-M   'P 1'
_cell_length_a   6.49375374
_cell_length_b   6.49418861
_cell_length_c   13.35556332
_cell_angle_alpha   78.80199630
_cell_angle_beta   77.71566696
_cell_angle_gamma   99.38450467
_symmetry_Int_Tables_number   1
_chemical_formula_structural   NiP2O7
_chemical_formula_sum   'Ni4 P8 O28'
_cell_volume   527.43821275
_cell_formula_units_Z   4
loop_
 _symmetry_equiv_pos_site_id
 _symmetry_equiv_pos_as_xyz
  1  'x, y, z'
loop_
 _atom_site_type_symbol
 _atom_site_label
 _atom_site_symmetry_multiplicity
 _atom_site_fract_x
 _atom_site_fract_y
 _atom_site_fract_z
 _atom_site_occupancy
  O  O0  1  0.78321024  0.38866668  0.01571983  1
  O  O1  1  0.75970718  0.17692712  0.87559074  1
  O  O2  1  0.90394706  0.53029509  0.64568618  1
  O  O3  1  0.87861346  0.99236072  0.69632584  1
  O  O4  1  0.24029288  0.82307194  0.12440963  1
  O  O5  1  0.09605338  0.46970566  0.35431323  1
  O  O6  1  0.12138661  0.00763835  0.30367453  1
  O  O7  1  0.03518817  0.85722377  0.87839291  1
  O  O8  1  0.09562669  0.20099547  0.51574114  1
  O  O9  1  0.32393921  0.45016994  0.14570458  1
  O  O10  1  0.23555230  0.91343378  0.62164108  1
  O  O11  1  0.28560329  0.59476710  0.48485878  1
  O  O12  1  0.18864703  0.57483547  0.80370115  1
  O  O13  1  0.21138946  0.26583911  0.67918755  1
  O  O14  1  0.57965604  0.77044733  0.01520427  1
  O  O15  1  0.21678853  0.61133411  0.98428053  1
  O  O16  1  0.44759446  0.36462728  0.37564291  1
  O  O17  1  0.90437375  0.79900529  0.48425827  1
  O  O18  1  0.44510627  0.89037422  0.82079354  1
  O  O19  1  0.55240598  0.63537348  0.62435651  1
  O  O20  1  0.96481059  0.14277702  0.12160745  1
  O  O21  1  0.42034440  0.22955343  0.98479514  1
  O  O22  1  0.78861099  0.73416164  0.32081186  1
  O  O23  1  0.81135341  0.42516530  0.19629904  1
  O  O24  1  0.71439715  0.40523366  0.51514141  1
  O  O25  1  0.76444814  0.08656698  0.37835911  1
  O  O26  1  0.67605919  0.54982915  0.85429597  1
  O  O27  1  0.55489417  0.10962654  0.17920665  1
  P  P28  1  0.22186415  0.74424617  0.86814183  1
  P  P29  1  0.77813629  0.25575460  0.13185836  1
  P  P30  1  0.88752798  0.91002744  0.36812477  1
  P  P31  1  0.76294524  0.58676051  0.57121064  1
  P  P32  1  0.34208206  0.66569584  0.07125798  1
  P  P33  1  0.23705353  0.41324027  0.42878894  1
  P  P34  1  0.11247209  0.08997162  0.63187483  1
  P  P35  1  0.65791801  0.33430322  0.92874240  1
  Ni  Ni36  1  0.73616107  0.87269107  0.85515879  1
  Ni  Ni37  1  0.77235823  0.40882311  0.35516911  1
  Ni  Ni38  1  0.22764053  0.59117768  0.64483125  1
  Ni  Ni39  1  0.26383937  0.12730969  0.14484140  1
