# generated using pymatgen
data_Ag2Bi2S3Cl2
_symmetry_space_group_name_H-M   'P 1'
_cell_length_a   7.31741932
_cell_length_b   11.18092444
_cell_length_c   11.42075478
_cell_angle_alpha   75.07573653
_cell_angle_beta   89.65925465
_cell_angle_gamma   88.12497560
_symmetry_Int_Tables_number   1
_chemical_formula_structural   Ag2Bi2S3Cl2
_chemical_formula_sum   'Ag8 Bi8 S12 Cl8'
_cell_volume   902.38866099
_cell_formula_units_Z   4
loop_
 _symmetry_equiv_pos_site_id
 _symmetry_equiv_pos_as_xyz
  1  'x, y, z'
loop_
 _atom_site_type_symbol
 _atom_site_label
 _atom_site_symmetry_multiplicity
 _atom_site_fract_x
 _atom_site_fract_y
 _atom_site_fract_z
 _atom_site_occupancy
  Ag  Ag0  1  0.48635820  0.70971171  0.69957879  1
  Ag  Ag1  1  0.01684387  0.30926789  0.79563905  1
  Ag  Ag2  1  0.74518317  0.50541445  0.64792639  1
  Ag  Ag3  1  0.25481683  0.49458555  0.35207361  1
  Ag  Ag4  1  0.74412102  0.49446028  0.14801833  1
  Ag  Ag5  1  0.25587898  0.50553972  0.85198167  1
  Ag  Ag6  1  0.98315613  0.69073211  0.20436095  1
  Ag  Ag7  1  0.51364180  0.29028829  0.30042121  1
  Bi  Bi8  1  0.07331824  0.79870023  0.51289411  1
  Bi  Bi9  1  0.89011905  0.79795215  0.84189479  1
  Bi  Bi10  1  0.61168686  0.20548140  0.98432848  1
  Bi  Bi11  1  0.38831314  0.79451860  0.01567152  1
  Bi  Bi12  1  0.10988095  0.20204785  0.15810521  1
  Bi  Bi13  1  0.92668176  0.20129977  0.48710589  1
  Bi  Bi14  1  0.42709822  0.20032842  0.65966870  1
  Bi  Bi15  1  0.57290178  0.79967158  0.34033130  1
  S  S16  1  0.00700612  0.36685061  0.28201747  1
  S  S17  1  0.61876724  0.34064267  0.48605168  1
  S  S18  1  0.90259943  0.34697210  0.98659644  1
  S  S19  1  0.99299388  0.63314939  0.71798253  1
  S  S20  1  0.59613319  0.65491681  0.91095087  1
  S  S21  1  0.12503118  0.34342001  0.58518957  1
  S  S22  1  0.50594210  0.36920153  0.77922394  1
  S  S23  1  0.40386681  0.34508319  0.08904913  1
  S  S24  1  0.49405790  0.63079847  0.22077606  1
  S  S25  1  0.09740057  0.65302790  0.01340356  1
  S  S26  1  0.38123276  0.65935733  0.51394832  1
  S  S27  1  0.87496882  0.65657999  0.41481043  1
  Cl  Cl28  1  0.21324228  0.89478404  0.23656757  1
  Cl  Cl29  1  0.27783931  0.09313081  0.43277362  1
  Cl  Cl30  1  0.78675772  0.10521596  0.76343243  1
  Cl  Cl31  1  0.26340281  0.10185821  0.94046171  1
  Cl  Cl32  1  0.76530810  0.09560041  0.26097529  1
  Cl  Cl33  1  0.73659719  0.89814179  0.05953829  1
  Cl  Cl34  1  0.23469190  0.90439959  0.73902471  1
  Cl  Cl35  1  0.72216069  0.90686919  0.56722638  1
