# generated using pymatgen
data_KNa2AuO2
_symmetry_space_group_name_H-M   'P 1'
_cell_length_a   3.98619540
_cell_length_b   5.49300477
_cell_length_c   10.29696328
_cell_angle_alpha   90.00000000
_cell_angle_beta   90.00000000
_cell_angle_gamma   90.00000000
_symmetry_Int_Tables_number   1
_chemical_formula_structural   KNa2AuO2
_chemical_formula_sum   'K2 Na4 Au2 O4'
_cell_volume   225.46426797
_cell_formula_units_Z   2
loop_
 _symmetry_equiv_pos_site_id
 _symmetry_equiv_pos_as_xyz
  1  'x, y, z'
loop_
 _atom_site_type_symbol
 _atom_site_label
 _atom_site_symmetry_multiplicity
 _atom_site_fract_x
 _atom_site_fract_y
 _atom_site_fract_z
 _atom_site_occupancy
  K  K0  1  0.00000000  0.00000000  0.50000000  1
  K  K1  1  0.50000000  0.50000000  0.00000000  1
  Na  Na2  1  0.50000000  0.90129784  0.23375409  1
  Na  Na3  1  0.50000000  0.09870216  0.76624591  1
  Na  Na4  1  0.00000000  0.40129784  0.26624591  1
  Na  Na5  1  0.00000000  0.59870216  0.73375409  1
  Au  Au6  1  0.00000000  0.00000000  0.00000000  1
  Au  Au7  1  0.50000000  0.50000000  0.50000000  1
  O  O8  1  0.50000000  0.74985042  0.64694891  1
  O  O9  1  0.00000000  0.24985042  0.85305109  1
  O  O10  1  0.00000000  0.75014958  0.14694891  1
  O  O11  1  0.50000000  0.25014958  0.35305109  1
