# generated using pymatgen
data_SrVF5
_symmetry_space_group_name_H-M   'P 1'
_cell_length_a   7.19625143
_cell_length_b   7.40264772
_cell_length_c   14.98060458
_cell_angle_alpha   90.00000000
_cell_angle_beta   95.01216106
_cell_angle_gamma   90.00000000
_symmetry_Int_Tables_number   1
_chemical_formula_structural   SrVF5
_chemical_formula_sum   'Sr8 V8 F40'
_cell_volume   794.98494422
_cell_formula_units_Z   8
loop_
 _symmetry_equiv_pos_site_id
 _symmetry_equiv_pos_as_xyz
  1  'x, y, z'
loop_
 _atom_site_type_symbol
 _atom_site_label
 _atom_site_symmetry_multiplicity
 _atom_site_fract_x
 _atom_site_fract_y
 _atom_site_fract_z
 _atom_site_occupancy
  F  F0  1  0.95547617  0.67711522  0.96632198  1
  F  F1  1  0.04452383  0.17711522  0.53367802  1
  F  F2  1  0.04452383  0.32288478  0.03367802  1
  F  F3  1  0.95547617  0.82288478  0.46632198  1
  F  F4  1  0.65132910  0.92157027  0.95827819  1
  F  F5  1  0.34867090  0.42157027  0.54172181  1
  F  F6  1  0.34867090  0.07842973  0.04172181  1
  F  F7  1  0.65132910  0.57842973  0.45827819  1
  F  F8  1  0.59967310  0.63422265  0.85325199  1
  F  F9  1  0.40032690  0.13422265  0.64674801  1
  F  F10  1  0.40032690  0.36577735  0.14674801  1
  F  F11  1  0.59967310  0.86577735  0.35325199  1
  F  F12  1  0.96823710  0.68852697  0.79347755  1
  F  F13  1  0.03176290  0.18852697  0.70652245  1
  F  F14  1  0.03176290  0.31147303  0.20652245  1
  F  F15  1  0.96823710  0.81147303  0.29347755  1
  F  F16  1  0.70139959  0.50084833  0.09802278  1
  F  F17  1  0.29860041  0.00084833  0.40197722  1
  F  F18  1  0.29860041  0.49915167  0.90197722  1
  F  F19  1  0.70139959  0.99915167  0.59802278  1
  F  F20  1  0.31335747  0.69431392  0.06726425  1
  F  F21  1  0.68664253  0.19431392  0.43273575  1
  F  F22  1  0.68664253  0.30568608  0.93273575  1
  F  F23  1  0.31335747  0.80568608  0.56726425  1
  F  F24  1  0.31257772  0.66083472  0.24315934  1
  F  F25  1  0.68742228  0.16083472  0.25684066  1
  F  F26  1  0.68742228  0.33916528  0.75684066  1
  F  F27  1  0.31257772  0.83916528  0.74315934  1
  F  F28  1  0.68981940  0.55322135  0.27113623  1
  F  F29  1  0.31018060  0.05322135  0.22886377  1
  F  F30  1  0.31018060  0.44677865  0.72886377  1
  F  F31  1  0.68981940  0.94677865  0.77113623  1
  F  F32  1  0.64630853  0.83620959  0.14888760  1
  F  F33  1  0.35369147  0.33620959  0.35111240  1
  F  F34  1  0.35369147  0.16379041  0.85111240  1
  F  F35  1  0.64630853  0.66379041  0.64888760  1
  F  F36  1  0.00436780  0.49176915  0.39162757  1
  F  F37  1  0.99563220  0.99176915  0.10837243  1
  F  F38  1  0.99563220  0.50823085  0.60837243  1
  F  F39  1  0.00436780  0.00823085  0.89162757  1
  V  V40  1  0.81008250  0.81491990  0.87420621  1
  V  V41  1  0.18991750  0.31491990  0.62579379  1
  V  V42  1  0.18991750  0.18508010  0.12579379  1
  V  V43  1  0.81008250  0.68508010  0.37420621  1
  V  V44  1  0.50642533  0.88153261  0.66263036  1
  V  V45  1  0.49357467  0.38153261  0.83736964  1
  V  V46  1  0.49357467  0.11846739  0.33736964  1
  V  V47  1  0.50642533  0.61846739  0.16263036  1
  Sr  Sr48  1  0.00218519  0.83884043  0.63673431  1
  Sr  Sr49  1  0.99781481  0.33884043  0.86326569  1
  Sr  Sr50  1  0.99781481  0.16115957  0.36326569  1
  Sr  Sr51  1  0.00218519  0.66115957  0.13673431  1
  Sr  Sr52  1  0.68954225  0.34209477  0.58496941  1
  Sr  Sr53  1  0.31045775  0.84209477  0.91503059  1
  Sr  Sr54  1  0.31045775  0.65790523  0.41503059  1
  Sr  Sr55  1  0.68954225  0.15790523  0.08496941  1
