# generated using pymatgen
data_K3Cu(NO3)5
_symmetry_space_group_name_H-M   'P 1'
_cell_length_a   8.41317655
_cell_length_b   11.93978242
_cell_length_c   14.46184388
_cell_angle_alpha   90.00000000
_cell_angle_beta   90.00000000
_cell_angle_gamma   90.33184175
_symmetry_Int_Tables_number   1
_chemical_formula_structural   K3Cu(NO3)5
_chemical_formula_sum   'K12 Cu4 N20 O60'
_cell_volume   1452.68950830
_cell_formula_units_Z   4
loop_
 _symmetry_equiv_pos_site_id
 _symmetry_equiv_pos_as_xyz
  1  'x, y, z'
loop_
 _atom_site_type_symbol
 _atom_site_label
 _atom_site_symmetry_multiplicity
 _atom_site_fract_x
 _atom_site_fract_y
 _atom_site_fract_z
 _atom_site_occupancy
  K  K0  1  0.27407743  0.05085785  0.52776314  1
  K  K1  1  0.26164004  0.95636035  0.04038154  1
  K  K2  1  0.27407743  0.55085785  0.97223686  1
  K  K3  1  0.73835996  0.54363965  0.54038154  1
  K  K4  1  0.39018810  0.28673358  0.77139179  1
  K  K5  1  0.26164004  0.45636035  0.45961846  1
  K  K6  1  0.60981190  0.71326642  0.22860821  1
  K  K7  1  0.39018810  0.78673358  0.72860821  1
  K  K8  1  0.72592257  0.44914215  0.02776314  1
  K  K9  1  0.72592257  0.94914215  0.47223686  1
  K  K10  1  0.73835996  0.04363965  0.95961846  1
  K  K11  1  0.60981190  0.21326642  0.27139179  1
  Cu  Cu12  1  0.92071845  0.68003826  0.77337611  1
  Cu  Cu13  1  0.07928155  0.31996174  0.22662389  1
  Cu  Cu14  1  0.92071845  0.18003826  0.72662389  1
  Cu  Cu15  1  0.07928155  0.81996174  0.27337611  1
  N  N16  1  0.85757514  0.96972576  0.20649948  1
  N  N17  1  0.65231225  0.55196253  0.80484617  1
  N  N18  1  0.14242486  0.53027424  0.70649948  1
  N  N19  1  0.03683257  0.17005385  0.36806694  1
  N  N20  1  0.65231225  0.05196253  0.69515383  1
  N  N21  1  0.03683257  0.67005385  0.13193306  1
  N  N22  1  0.34768775  0.94803747  0.30484617  1
  N  N23  1  0.96222066  0.80241934  0.92344566  1
  N  N24  1  0.14242486  0.03027424  0.79350052  1
  N  N25  1  0.96316743  0.32994615  0.86806694  1
  N  N26  1  0.03777934  0.69758066  0.42344566  1
  N  N27  1  0.53876985  0.76070988  0.99551128  1
  N  N28  1  0.96222066  0.30241934  0.57655434  1
  N  N29  1  0.96316743  0.82994615  0.63193306  1
  N  N30  1  0.03777934  0.19758066  0.07655434  1
  N  N31  1  0.34768775  0.44803747  0.19515383  1
  N  N32  1  0.53876985  0.26070988  0.50448872  1
  N  N33  1  0.85757514  0.46972576  0.29350052  1
  N  N34  1  0.46123015  0.73929012  0.49551128  1
  N  N35  1  0.46123015  0.23929012  0.00448872  1
  O  O36  1  0.04877659  0.63113619  0.48947151  1
  O  O37  1  0.78753539  0.57260314  0.84573835  1
  O  O38  1  0.46337468  0.76135335  0.91957488  1
  O  O39  1  0.85116443  0.80252675  0.86017726  1
  O  O40  1  0.85116443  0.30252675  0.63982274  1
  O  O41  1  0.43490575  0.14814627  0.96131597  1
  O  O42  1  0.20415754  0.95762521  0.84337586  1
  O  O43  1  0.43490575  0.64814627  0.53868403  1
  O  O44  1  0.55900520  0.48539927  0.84367173  1
  O  O45  1  0.21246461  0.92739686  0.34573835  1
  O  O46  1  0.07500095  0.23531892  0.58615245  1
  O  O47  1  0.95122341  0.86886381  0.98947151  1
  O  O48  1  0.58420227  0.16879387  0.46967300  1
  O  O49  1  0.53662532  0.23864665  0.08042512  1
  O  O50  1  0.46337468  0.26135335  0.58042512  1
  O  O51  1  0.37697460  0.40062505  0.27073202  1
  O  O52  1  0.04951605  0.28964371  0.80045469  1
  O  O53  1  0.82244650  0.79593602  0.62406677  1
  O  O54  1  0.56509425  0.35185373  0.46131597  1
  O  O55  1  0.00660319  0.44398544  0.30826114  1
  O  O56  1  0.37697460  0.90062505  0.22926798  1
  O  O57  1  0.97519493  0.09976282  0.42057400  1
  O  O58  1  0.92499905  0.26468108  0.08615245  1
  O  O59  1  0.53662532  0.73864665  0.41957488  1
  O  O60  1  0.62302540  0.59937495  0.72926798  1
  O  O61  1  0.41579773  0.33120613  0.96967300  1
  O  O62  1  0.21525302  0.57919284  0.77063783  1
  O  O63  1  0.92499905  0.76468108  0.41384755  1
  O  O64  1  0.99339681  0.55601456  0.69173886  1
  O  O65  1  0.04877659  0.13113619  0.01052849  1
  O  O66  1  0.95048395  0.71035629  0.19954531  1
  O  O67  1  0.56509425  0.85185373  0.03868403  1
  O  O68  1  0.21246461  0.42739686  0.15426165  1
  O  O69  1  0.79584246  0.04237479  0.15662414  1
  O  O70  1  0.21525302  0.07919284  0.72936217  1
  O  O71  1  0.55900520  0.98539927  0.65632827  1
  O  O72  1  0.00660319  0.94398544  0.19173886  1
  O  O73  1  0.99339681  0.05601456  0.80826114  1
  O  O74  1  0.78474698  0.42080716  0.22936217  1
  O  O75  1  0.62302540  0.09937495  0.77073202  1
  O  O76  1  0.07500095  0.73531892  0.91384755  1
  O  O77  1  0.02480507  0.40023718  0.92057400  1
  O  O78  1  0.78474698  0.92080716  0.27063783  1
  O  O79  1  0.17755350  0.70406398  0.12406677  1
  O  O80  1  0.82244650  0.29593602  0.87593323  1
  O  O81  1  0.79584246  0.54237479  0.34337586  1
  O  O82  1  0.44099480  0.51460073  0.15632827  1
  O  O83  1  0.14883557  0.69747325  0.36017726  1
  O  O84  1  0.97519493  0.59976282  0.07942600  1
  O  O85  1  0.14883557  0.19747325  0.13982274  1
  O  O86  1  0.20415754  0.45762521  0.65662414  1
  O  O87  1  0.17755350  0.20406398  0.37593323  1
  O  O88  1  0.78753539  0.07260314  0.65426165  1
  O  O89  1  0.02480507  0.90023718  0.57942600  1
  O  O90  1  0.41579773  0.83120613  0.53032700  1
  O  O91  1  0.95122341  0.36886381  0.51052849  1
  O  O92  1  0.95048395  0.21035629  0.30045469  1
  O  O93  1  0.44099480  0.01460073  0.34367173  1
  O  O94  1  0.58420227  0.66879387  0.03032700  1
  O  O95  1  0.04951605  0.78964371  0.69954531  1
