# generated using pymatgen
data_ErGeBiO5
_symmetry_space_group_name_H-M   'P 1'
_cell_length_a   5.37333983
_cell_length_b   11.08048663
_cell_length_c   15.42219867
_cell_angle_alpha   90.00000000
_cell_angle_beta   90.00000000
_cell_angle_gamma   90.00000000
_symmetry_Int_Tables_number   1
_chemical_formula_structural   ErGeBiO5
_chemical_formula_sum   'Er8 Ge8 Bi8 O40'
_cell_volume   918.22568173
_cell_formula_units_Z   8
loop_
 _symmetry_equiv_pos_site_id
 _symmetry_equiv_pos_as_xyz
  1  'x, y, z'
loop_
 _atom_site_type_symbol
 _atom_site_label
 _atom_site_symmetry_multiplicity
 _atom_site_fract_x
 _atom_site_fract_y
 _atom_site_fract_z
 _atom_site_occupancy
  Er  Er0  1  0.01021696  0.85885861  0.44673900  1
  Er  Er1  1  0.51021696  0.14114139  0.05326100  1
  Er  Er2  1  0.48978304  0.35885861  0.55326100  1
  Er  Er3  1  0.48978304  0.85885861  0.94673900  1
  Er  Er4  1  0.98978304  0.14114139  0.55326100  1
  Er  Er5  1  0.51021696  0.64114139  0.44673900  1
  Er  Er6  1  0.01021696  0.35885861  0.05326100  1
  Er  Er7  1  0.98978304  0.64114139  0.94673900  1
  Ge  Ge8  1  0.00640401  0.40301940  0.40458339  1
  Ge  Ge9  1  0.99359599  0.59698060  0.59541661  1
  Ge  Ge10  1  0.50640401  0.59698060  0.09541661  1
  Ge  Ge11  1  0.49359599  0.90301940  0.59541661  1
  Ge  Ge12  1  0.99359599  0.09698060  0.90458339  1
  Ge  Ge13  1  0.00640401  0.90301940  0.09541661  1
  Ge  Ge14  1  0.49359599  0.40301940  0.90458339  1
  Ge  Ge15  1  0.50640401  0.09698060  0.40458339  1
  Bi  Bi16  1  0.54309533  0.64670784  0.76283219  1
  Bi  Bi17  1  0.04309533  0.35329216  0.73716781  1
  Bi  Bi18  1  0.54309533  0.14670784  0.73716781  1
  Bi  Bi19  1  0.45690467  0.85329216  0.26283219  1
  Bi  Bi20  1  0.95690467  0.14670784  0.23716781  1
  Bi  Bi21  1  0.45690467  0.35329216  0.23716781  1
  Bi  Bi22  1  0.95690467  0.64670784  0.26283219  1
  Bi  Bi23  1  0.04309533  0.85329216  0.76283219  1
  O  O24  1  0.19508652  0.97572642  0.87387184  1
  O  O25  1  0.24983810  0.23501433  0.15004541  1
  O  O26  1  0.69508652  0.52427358  0.87387184  1
  O  O27  1  0.75016190  0.76498567  0.84995459  1
  O  O28  1  0.19844594  0.95873790  0.56109954  1
  O  O29  1  0.93460803  0.67008084  0.69753461  1
  O  O30  1  0.80155406  0.04126210  0.43890046  1
  O  O31  1  0.93460803  0.17008084  0.80246539  1
  O  O32  1  0.19844594  0.45873790  0.93890046  1
  O  O33  1  0.75016190  0.26498567  0.65004541  1
  O  O34  1  0.80155406  0.54126210  0.06109954  1
  O  O35  1  0.06539197  0.82991916  0.19753461  1
  O  O36  1  0.25016190  0.23501433  0.65004541  1
  O  O37  1  0.85649915  0.30860794  0.48010369  1
  O  O38  1  0.85649915  0.80860794  0.01989631  1
  O  O39  1  0.43460803  0.32991916  0.80246539  1
  O  O40  1  0.80491348  0.02427358  0.12612816  1
  O  O41  1  0.74983810  0.76498567  0.34995459  1
  O  O42  1  0.69844594  0.04126210  0.93890046  1
  O  O43  1  0.64350085  0.80860794  0.51989631  1
  O  O44  1  0.74983810  0.26498567  0.15004541  1
  O  O45  1  0.69508652  0.02427358  0.62612816  1
  O  O46  1  0.35649915  0.19139206  0.48010369  1
  O  O47  1  0.24983810  0.73501433  0.34995459  1
  O  O48  1  0.06539197  0.32991916  0.30246539  1
  O  O49  1  0.30155406  0.95873790  0.06109954  1
  O  O50  1  0.64350085  0.30860794  0.98010369  1
  O  O51  1  0.14350085  0.19139206  0.98010369  1
  O  O52  1  0.56539197  0.67008084  0.19753461  1
  O  O53  1  0.30491348  0.47572642  0.12612816  1
  O  O54  1  0.69844594  0.54126210  0.56109954  1
  O  O55  1  0.30491348  0.97572642  0.37387184  1
  O  O56  1  0.30155406  0.45873790  0.43890046  1
  O  O57  1  0.19508652  0.47572642  0.62612816  1
  O  O58  1  0.56539197  0.17008084  0.30246539  1
  O  O59  1  0.80491348  0.52427358  0.37387184  1
  O  O60  1  0.35649915  0.69139206  0.01989631  1
  O  O61  1  0.14350085  0.69139206  0.51989631  1
  O  O62  1  0.43460803  0.82991916  0.69753461  1
  O  O63  1  0.25016190  0.73501433  0.84995459  1
