# generated using pymatgen
data_KLi3PbO4
_symmetry_space_group_name_H-M   'P 1'
_cell_length_a   6.02973184
_cell_length_b   6.02963176
_cell_length_c   7.07761610
_cell_angle_alpha   72.05821077
_cell_angle_beta   72.80602741
_cell_angle_gamma   88.16691677
_symmetry_Int_Tables_number   1
_chemical_formula_structural   KLi3PbO4
_chemical_formula_sum   'K2 Li6 Pb2 O8'
_cell_volume   233.37265128
_cell_formula_units_Z   2
loop_
 _symmetry_equiv_pos_site_id
 _symmetry_equiv_pos_as_xyz
  1  'x, y, z'
loop_
 _atom_site_type_symbol
 _atom_site_label
 _atom_site_symmetry_multiplicity
 _atom_site_fract_x
 _atom_site_fract_y
 _atom_site_fract_z
 _atom_site_occupancy
  K  K0  1  0.98659444  0.51241521  0.75010276  1
  K  K1  1  0.01340556  0.48758479  0.24989724  1
  Li  Li2  1  0.13120367  0.04900712  0.09095205  1
  Li  Li3  1  0.86879633  0.95099288  0.90904795  1
  Li  Li4  1  0.46157092  0.68488487  0.84296462  1
  Li  Li5  1  0.16433334  0.06493470  0.55428815  1
  Li  Li6  1  0.83566666  0.93506530  0.44571185  1
  Li  Li7  1  0.53842908  0.31511513  0.15703538  1
  Pb  Pb8  1  0.50768197  0.75496486  0.29786262  1
  Pb  Pb9  1  0.49231803  0.24503514  0.70213738  1
  O  O10  1  0.35911206  0.36362450  0.43650481  1
  O  O11  1  0.17442297  0.88216348  0.36449027  1
  O  O12  1  0.82557703  0.11783652  0.63550973  1
  O  O13  1  0.67174856  0.65410530  0.03154358  1
  O  O14  1  0.32825144  0.34589470  0.96845642  1
  O  O15  1  0.76683119  0.05870726  0.16925923  1
  O  O16  1  0.23316881  0.94129274  0.83074077  1
  O  O17  1  0.64088794  0.63637550  0.56349519  1
