# generated using pymatgen
data_Na2Pd(SeO4)2
_symmetry_space_group_name_H-M   'P 1'
_cell_length_a   5.04166306
_cell_length_b   6.13614236
_cell_length_c   7.35018036
_cell_angle_alpha   73.51032000
_cell_angle_beta   86.64465228
_cell_angle_gamma   70.79859123
_symmetry_Int_Tables_number   1
_chemical_formula_structural   Na2Pd(SeO4)2
_chemical_formula_sum   'Na2 Pd1 Se2 O8'
_cell_volume   205.75356225
_cell_formula_units_Z   1
loop_
 _symmetry_equiv_pos_site_id
 _symmetry_equiv_pos_as_xyz
  1  'x, y, z'
loop_
 _atom_site_type_symbol
 _atom_site_label
 _atom_site_symmetry_multiplicity
 _atom_site_fract_x
 _atom_site_fract_y
 _atom_site_fract_z
 _atom_site_occupancy
  Na  Na0  1  0.80001119  0.26759143  0.81137038  1
  Na  Na1  1  0.19998881  0.73240857  0.18862962  1
  Pd  Pd2  1  0.50000000  0.00000000  0.50000000  1
  Se  Se3  1  0.11759944  0.68787935  0.71638586  1
  Se  Se4  1  0.88240056  0.31212065  0.28361414  1
  O  O5  1  0.26148242  0.78793051  0.50269249  1
  O  O6  1  0.79137445  0.69218289  0.65551817  1
  O  O7  1  0.28544114  0.40087236  0.81787699  1
  O  O8  1  0.20862555  0.30781711  0.34448183  1
  O  O9  1  0.10268286  0.86362997  0.85342813  1
  O  O10  1  0.89731714  0.13637003  0.14657187  1
  O  O11  1  0.73851758  0.21206949  0.49730751  1
  O  O12  1  0.71455886  0.59912764  0.18212301  1
