# generated using pymatgen
data_Rb2TeH6SO10
_symmetry_space_group_name_H-M   'P 1'
_cell_length_a   6.80641116
_cell_length_b   11.69528208
_cell_length_c   13.70941362
_cell_angle_alpha   107.37716561
_cell_angle_beta   90.00000000
_cell_angle_gamma   90.00000000
_symmetry_Int_Tables_number   1
_chemical_formula_structural   Rb2TeH6SO10
_chemical_formula_sum   'Rb8 Te4 H24 S4 O40'
_cell_volume   1041.50109446
_cell_formula_units_Z   4
loop_
 _symmetry_equiv_pos_site_id
 _symmetry_equiv_pos_as_xyz
  1  'x, y, z'
loop_
 _atom_site_type_symbol
 _atom_site_label
 _atom_site_symmetry_multiplicity
 _atom_site_fract_x
 _atom_site_fract_y
 _atom_site_fract_z
 _atom_site_occupancy
  Rb  Rb0  1  0.47842270  0.65582485  0.36020680  1
  Rb  Rb1  1  0.99890086  0.59868853  0.86061741  1
  Rb  Rb2  1  0.50109914  0.09868853  0.86061741  1
  Rb  Rb3  1  0.00109914  0.40131147  0.13938259  1
  Rb  Rb4  1  0.02157730  0.15582485  0.36020680  1
  Rb  Rb5  1  0.52157730  0.34417515  0.63979320  1
  Rb  Rb6  1  0.49890086  0.90131147  0.13938259  1
  Rb  Rb7  1  0.97842270  0.84417515  0.63979320  1
  Te  Te8  1  0.00000000  0.50000000  0.50000000  1
  Te  Te9  1  0.50000000  0.50000000  0.00000000  1
  Te  Te10  1  0.00000000  0.00000000  0.00000000  1
  Te  Te11  1  0.50000000  0.00000000  0.50000000  1
  H  H12  1  0.29214633  0.63735983  0.13549417  1
  H  H13  1  0.93743178  0.62964751  0.38896005  1
  H  H14  1  1.00817223  0.83469236  0.08472391  1
  H  H15  1  0.75709101  0.59172251  0.63709805  1
  H  H16  1  0.49182777  0.33469236  0.08472391  1
  H  H17  1  0.75206730  0.63707801  0.10862295  1
  H  H18  1  0.79214633  0.86264017  0.86450583  1
  H  H19  1  0.50817223  0.66530764  0.91527609  1
  H  H20  1  0.74793270  0.13707801  0.10862295  1
  H  H21  1  0.24290899  0.40827749  0.36290195  1
  H  H22  1  0.56256822  0.12964751  0.38896005  1
  H  H23  1  0.25709101  0.90827749  0.36290195  1
  H  H24  1  0.43743178  0.87035249  0.61103995  1
  H  H25  1  0.70785367  0.36264017  0.86450583  1
  H  H26  1  0.81840912  0.90103062  0.42456534  1
  H  H27  1  0.31840912  0.59896938  0.57543466  1
  H  H28  1  0.24793270  0.36292199  0.89137705  1
  H  H29  1  0.25206730  0.86292199  0.89137705  1
  H  H30  1  0.06256822  0.37035249  0.61103995  1
  H  H31  1  0.18159088  0.09896938  0.57543466  1
  H  H32  1  0.20785367  0.13735983  0.13549417  1
  H  H33  1  0.68159088  0.40103062  0.42456534  1
  H  H34  1  0.74290899  0.09172251  0.63709805  1
  H  H35  1  -0.00817223  0.16530764  0.91527609  1
  S  S36  1  0.98994628  0.76318162  0.25327651  1
  S  S37  1  0.48994628  0.73681838  0.74672349  1
  S  S38  1  0.01005372  0.23681838  0.74672349  1
  S  S39  1  0.51005372  0.26318162  0.25327651  1
  O  O40  1  0.59572452  0.08679932  0.63687451  1
  O  O41  1  0.62426195  0.73660095  0.83389240  1
  O  O42  1  0.22761276  0.60622087  0.52011892  1
  O  O43  1  0.41505333  0.64065172  0.96186837  1
  O  O44  1  0.37573805  0.26339905  0.16610760  1
  O  O45  1  0.35760021  0.88923369  0.55582124  1
  O  O46  1  0.24142000  0.43004666  0.95756902  1
  O  O47  1  0.40427548  0.91320068  0.36312549  1
  O  O48  1  0.85760021  0.61076631  0.44417876  1
  O  O49  1  0.25858000  0.93004666  0.95756902  1
  O  O50  1  0.05007570  0.66257322  0.29271120  1
  O  O51  1  0.08494667  0.14065172  0.96186837  1
  O  O52  1  0.38645734  0.57177439  0.13562656  1
  O  O53  1  0.55007570  0.83742678  0.70728880  1
  O  O54  1  0.72761276  0.89377913  0.47988108  1
  O  O55  1  0.50969437  0.61903263  0.66422720  1
  O  O56  1  0.61354266  0.42822561  0.86437344  1
  O  O57  1  0.90427548  0.58679932  0.63687451  1
  O  O58  1  0.00969437  0.88096737  0.33577280  1
  O  O59  1  0.28187090  0.75178100  0.78176917  1
  O  O60  1  0.78187090  0.74821900  0.21823083  1
  O  O61  1  0.74142000  0.06995334  0.04243098  1
  O  O62  1  0.27238724  0.10622087  0.52011892  1
  O  O63  1  0.99030563  0.11903263  0.66422720  1
  O  O64  1  0.21812910  0.25178100  0.78176917  1
  O  O65  1  0.77238724  0.39377913  0.47988108  1
  O  O66  1  0.71812910  0.24821900  0.21823083  1
  O  O67  1  0.09572452  0.41320068  0.36312549  1
  O  O68  1  0.91505333  0.85934828  0.03813163  1
  O  O69  1  0.14239979  0.38923369  0.55582124  1
  O  O70  1  0.44992430  0.16257322  0.29271120  1
  O  O71  1  0.11354266  0.07177439  0.13562656  1
  O  O72  1  0.87573805  0.23660095  0.83389240  1
  O  O73  1  0.12426195  0.76339905  0.16610760  1
  O  O74  1  0.94992430  0.33742678  0.70728880  1
  O  O75  1  0.49030563  0.38096737  0.33577280  1
  O  O76  1  0.64239979  0.11076631  0.44417876  1
  O  O77  1  0.75858000  0.56995334  0.04243098  1
  O  O78  1  0.88645734  0.92822561  0.86437344  1
  O  O79  1  0.58494667  0.35934828  0.03813163  1
