# generated using pymatgen
data_Tl2BiP2S7
_symmetry_space_group_name_H-M   'P 1'
_cell_length_a   6.81641648
_cell_length_b   12.27033651
_cell_length_c   17.05788921
_cell_angle_alpha   79.41376040
_cell_angle_beta   78.47381983
_cell_angle_gamma   73.87763304
_symmetry_Int_Tables_number   1
_chemical_formula_structural   Tl2BiP2S7
_chemical_formula_sum   'Tl8 Bi4 P8 S28'
_cell_volume   1330.44594669
_cell_formula_units_Z   4
loop_
 _symmetry_equiv_pos_site_id
 _symmetry_equiv_pos_as_xyz
  1  'x, y, z'
loop_
 _atom_site_type_symbol
 _atom_site_label
 _atom_site_symmetry_multiplicity
 _atom_site_fract_x
 _atom_site_fract_y
 _atom_site_fract_z
 _atom_site_occupancy
  Tl  Tl0  1  0.53662994  0.86840581  0.11816517  1
  Tl  Tl1  1  0.47688223  0.36851112  0.61813270  1
  Tl  Tl2  1  0.46337006  0.13159419  0.88183483  1
  Tl  Tl3  1  0.82691032  0.82547768  0.52695779  1
  Tl  Tl4  1  0.52311777  0.63148888  0.38186730  1
  Tl  Tl5  1  0.17308968  0.17452232  0.47304221  1
  Tl  Tl6  1  0.17926214  0.67446445  0.97303200  1
  Tl  Tl7  1  0.82073786  0.32553555  0.02696800  1
  Bi  Bi8  1  0.88695546  0.08006620  0.24653709  1
  Bi  Bi9  1  0.11304454  0.91993380  0.75346291  1
  Bi  Bi10  1  0.21364762  0.41986806  0.25340919  1
  Bi  Bi11  1  0.78635238  0.58013194  0.74659081  1
  P  P12  1  0.06961638  0.70966225  0.19236047  1
  P  P13  1  0.97172714  0.79024185  0.30755714  1
  P  P14  1  0.33410037  0.69242016  0.63832725  1
  P  P15  1  0.93038362  0.29033775  0.80763953  1
  P  P16  1  0.66589963  0.30757984  0.36167275  1
  P  P17  1  0.02827286  0.20975815  0.69244286  1
  P  P18  1  0.33519105  0.19235687  0.13830673  1
  P  P19  1  0.66480895  0.80764313  0.86169327  1
  S  S20  1  0.14065686  0.61250720  0.60690883  1
  S  S21  1  0.36006501  0.88753956  0.89313122  1
  S  S22  1  0.25750299  0.86592903  0.59747937  1
  S  S23  1  0.88384881  0.60255403  0.19801759  1
  S  S24  1  0.11615119  0.39744597  0.80198241  1
  S  S25  1  0.62899605  0.61612360  0.58843305  1
  S  S26  1  0.04595251  0.83973742  0.10183384  1
  S  S27  1  0.95404749  0.16026258  0.89816616  1
  S  S28  1  0.63993499  0.11246044  0.10686878  1
  S  S29  1  0.23761110  0.17294216  0.26239029  1
  S  S30  1  0.31550389  0.10268041  0.69807648  1
  S  S31  1  0.37100395  0.38387640  0.41156695  1
  S  S32  1  0.83353698  0.88395081  0.91157355  1
  S  S33  1  0.85934314  0.38749280  0.39309117  1
  S  S34  1  0.16646302  0.11604919  0.08842645  1
  S  S35  1  0.68449611  0.89731959  0.30192352  1
  S  S36  1  0.01237491  0.33980528  0.60189729  1
  S  S37  1  0.32700407  0.67295825  0.76240915  1
  S  S38  1  0.67299593  0.32704175  0.23759085  1
  S  S39  1  0.72088833  0.63412549  0.90255799  1
  S  S40  1  0.36737414  0.61215036  0.19641005  1
  S  S41  1  0.27911167  0.36587451  0.09744201  1
  S  S42  1  0.82400629  0.11220071  0.69651373  1
  S  S43  1  0.74249701  0.13407097  0.40252063  1
  S  S44  1  0.76238890  0.82705784  0.73760971  1
  S  S45  1  0.63262586  0.38784964  0.80358995  1
  S  S46  1  0.17599371  0.88779929  0.30348627  1
  S  S47  1  0.98762509  0.66019472  0.39810271  1
