# generated using pymatgen
data_CsTa(PO4)2
_symmetry_space_group_name_H-M   'P 1'
_cell_length_a   5.15309128
_cell_length_b   5.15395992
_cell_length_c   9.01689427
_cell_angle_alpha   87.15569778
_cell_angle_beta   87.21617873
_cell_angle_gamma   61.77107150
_symmetry_Int_Tables_number   1
_chemical_formula_structural   CsTa(PO4)2
_chemical_formula_sum   'Cs1 Ta1 P2 O8'
_cell_volume   210.65008129
_cell_formula_units_Z   1
loop_
 _symmetry_equiv_pos_site_id
 _symmetry_equiv_pos_as_xyz
  1  'x, y, z'
loop_
 _atom_site_type_symbol
 _atom_site_label
 _atom_site_symmetry_multiplicity
 _atom_site_fract_x
 _atom_site_fract_y
 _atom_site_fract_z
 _atom_site_occupancy
  Cs  Cs0  1  0.00000000  0.00000000  0.50000000  1
  Ta  Ta1  1  0.00000000  0.00000000  0.00000000  1
  P  P2  1  0.64521914  0.64464316  0.19181500  1
  P  P3  1  0.35478086  0.35535684  0.80818500  1
  O  O4  1  0.79120889  0.79151416  0.08483675  1
  O  O5  1  0.21198602  0.68522735  0.85412055  1
  O  O6  1  0.32312507  0.32464314  0.64754683  1
  O  O7  1  0.31506766  0.78728687  0.14603842  1
  O  O8  1  0.78801398  0.31477265  0.14587945  1
  O  O9  1  0.20879111  0.20848584  0.91516325  1
  O  O10  1  0.67687493  0.67535686  0.35245317  1
  O  O11  1  0.68493234  0.21271313  0.85396158  1
