# generated using pymatgen
data_Eu3(AsS4)2
_symmetry_space_group_name_H-M   'P 1'
_cell_length_a   10.62519978
_cell_length_b   10.62520039
_cell_length_c   10.62520022
_cell_angle_alpha   51.61762124
_cell_angle_beta   51.61761855
_cell_angle_gamma   51.61761865
_symmetry_Int_Tables_number   1
_chemical_formula_structural   Eu3(AsS4)2
_chemical_formula_sum   'Eu6 As4 S16'
_cell_volume   680.85894461
_cell_formula_units_Z   2
loop_
 _symmetry_equiv_pos_site_id
 _symmetry_equiv_pos_as_xyz
  1  'x, y, z'
loop_
 _atom_site_type_symbol
 _atom_site_label
 _atom_site_symmetry_multiplicity
 _atom_site_fract_x
 _atom_site_fract_y
 _atom_site_fract_z
 _atom_site_occupancy
  Eu  Eu0  1  0.57088659  0.25000000  0.92911341  1
  Eu  Eu1  1  0.07088659  0.42911341  0.75000000  1
  Eu  Eu2  1  0.42911341  0.75000000  0.07088659  1
  Eu  Eu3  1  0.25000000  0.92911341  0.57088659  1
  Eu  Eu4  1  0.92911341  0.57088659  0.25000000  1
  Eu  Eu5  1  0.75000000  0.07088659  0.42911341  1
  As  As6  1  0.84041311  0.84041311  0.84041311  1
  As  As7  1  0.65958689  0.65958689  0.65958689  1
  As  As8  1  0.34041311  0.34041311  0.34041311  1
  As  As9  1  0.15958689  0.15958689  0.15958689  1
  S  S10  1  0.94330824  0.22343958  0.38951226  1
  S  S11  1  0.88951226  0.72343958  0.44330824  1
  S  S12  1  0.42120350  0.42120350  0.42120350  1
  S  S13  1  0.11048774  0.27656042  0.55669176  1
  S  S14  1  0.92120350  0.92120350  0.92120350  1
  S  S15  1  0.61048774  0.05669176  0.77656042  1
  S  S16  1  0.57879650  0.57879650  0.57879650  1
  S  S17  1  0.55669176  0.11048774  0.27656042  1
  S  S18  1  0.72343958  0.44330824  0.88951226  1
  S  S19  1  0.05669176  0.77656042  0.61048774  1
  S  S20  1  0.77656042  0.61048774  0.05669176  1
  S  S21  1  0.07879650  0.07879650  0.07879650  1
  S  S22  1  0.44330824  0.88951226  0.72343958  1
  S  S23  1  0.22343958  0.38951226  0.94330824  1
  S  S24  1  0.27656042  0.55669176  0.11048774  1
  S  S25  1  0.38951226  0.94330824  0.22343958  1
