# generated using pymatgen
data_BaSrTa2O7
_symmetry_space_group_name_H-M   'P 1'
_cell_length_a   4.02968472
_cell_length_b   7.90810848
_cell_length_c   11.18256975
_cell_angle_alpha   110.70710955
_cell_angle_beta   100.38007443
_cell_angle_gamma   89.99999994
_symmetry_Int_Tables_number   1
_chemical_formula_structural   BaSrTa2O7
_chemical_formula_sum   'Ba2 Sr2 Ta4 O14'
_cell_volume   327.09413235
_cell_formula_units_Z   2
loop_
 _symmetry_equiv_pos_site_id
 _symmetry_equiv_pos_as_xyz
  1  'x, y, z'
loop_
 _atom_site_type_symbol
 _atom_site_label
 _atom_site_symmetry_multiplicity
 _atom_site_fract_x
 _atom_site_fract_y
 _atom_site_fract_z
 _atom_site_occupancy
  Ba  Ba0  1  0.73802096  0.23802096  0.47604192  1
  Ba  Ba1  1  0.26197904  0.76197904  0.52395808  1
  Sr  Sr2  1  0.50000000  0.50000000  0.00000000  1
  Sr  Sr3  1  0.50000000  0.00000000  0.00000000  1
  Ta  Ta4  1  0.10268647  0.85445567  0.20537294  1
  Ta  Ta5  1  0.10268647  0.35091727  0.20537294  1
  Ta  Ta6  1  0.89731353  0.14554433  0.79462706  1
  Ta  Ta7  1  0.89731353  0.64908273  0.79462706  1
  O  O8  1  0.92044320  0.92044320  0.84088641  1
  O  O9  1  0.40744080  0.15461741  0.81488160  1
  O  O10  1  0.59255920  0.33973580  0.18511840  1
  O  O11  1  0.80745435  0.01064447  0.61490871  1
  O  O12  1  0.00000000  0.71268102  0.00000000  1
  O  O13  1  0.40744080  0.66026420  0.81488160  1
  O  O14  1  0.19254565  0.39573577  0.38509129  1
  O  O15  1  1.00000000  0.28731898  1.00000000  1
  O  O16  1  0.19254565  0.98935553  0.38509129  1
  O  O17  1  0.88734487  0.38734487  0.77468973  1
  O  O18  1  0.07955680  0.07955680  0.15911359  1
  O  O19  1  0.59255920  0.84538259  0.18511840  1
  O  O20  1  0.80745435  0.60426423  0.61490871  1
  O  O21  1  0.11265513  0.61265513  0.22531027  1
