# generated using pymatgen
data_NaZr2CuF11
_symmetry_space_group_name_H-M   'P 1'
_cell_length_a   5.61602279
_cell_length_b   5.85751675
_cell_length_c   7.78216835
_cell_angle_alpha   110.48957975
_cell_angle_beta   96.72258469
_cell_angle_gamma   106.29340337
_symmetry_Int_Tables_number   1
_chemical_formula_structural   NaZr2CuF11
_chemical_formula_sum   'Na1 Zr2 Cu1 F11'
_cell_volume   223.48041369
_cell_formula_units_Z   1
loop_
 _symmetry_equiv_pos_site_id
 _symmetry_equiv_pos_as_xyz
  1  'x, y, z'
loop_
 _atom_site_type_symbol
 _atom_site_label
 _atom_site_symmetry_multiplicity
 _atom_site_fract_x
 _atom_site_fract_y
 _atom_site_fract_z
 _atom_site_occupancy
  Na  Na0  1  0.00000000  0.00000000  0.00000000  1
  Zr  Zr1  1  0.48714557  0.26871971  0.76299871  1
  Zr  Zr2  1  0.51285443  0.73128029  0.23700129  1
  Cu  Cu3  1  0.00000000  0.50000000  0.50000000  1
  F  F4  1  0.25951081  0.83239463  0.11043896  1
  F  F5  1  0.18942002  0.94197887  0.70953638  1
  F  F6  1  0.77556867  0.48713858  0.66941642  1
  F  F7  1  0.74048919  0.16760537  0.88956104  1
  F  F8  1  0.33698200  0.33956044  0.01616475  1
  F  F9  1  0.81057998  0.05802113  0.29046362  1
  F  F10  1  0.76314064  0.59191525  0.35301820  1
  F  F11  1  0.23685936  0.40808475  0.64698180  1
  F  F12  1  0.22443133  0.51286142  0.33058358  1
  F  F13  1  0.50000000  0.00000000  0.50000000  1
  F  F14  1  0.66301800  0.66043956  0.98383525  1
