# generated using pymatgen
data_Li3Er(NO3)6
_symmetry_space_group_name_H-M   'P 1'
_cell_length_a   7.64576350
_cell_length_b   7.92331887
_cell_length_c   24.49235964
_cell_angle_alpha   91.01417576
_cell_angle_beta   90.00000000
_cell_angle_gamma   90.00000000
_symmetry_Int_Tables_number   1
_chemical_formula_structural   Li3Er(NO3)6
_chemical_formula_sum   'Li12 Er4 N24 O72'
_cell_volume   1483.51035977
_cell_formula_units_Z   4
loop_
 _symmetry_equiv_pos_site_id
 _symmetry_equiv_pos_as_xyz
  1  'x, y, z'
loop_
 _atom_site_type_symbol
 _atom_site_label
 _atom_site_symmetry_multiplicity
 _atom_site_fract_x
 _atom_site_fract_y
 _atom_site_fract_z
 _atom_site_occupancy
  Li  Li0  1  0.18482729  0.21304186  0.63555102  1
  Li  Li1  1  0.05956165  1.00145155  0.24536049  1
  Li  Li2  1  0.28871607  0.75720900  0.47532370  1
  Li  Li3  1  0.55956165  0.49854845  0.25463951  1
  Li  Li4  1  0.44043835  0.50145155  0.74536049  1
  Li  Li5  1  0.94043835  -0.00145155  0.75463951  1
  Li  Li6  1  0.71128393  0.24279100  0.52467630  1
  Li  Li7  1  0.81517271  0.78695814  0.36444898  1
  Li  Li8  1  0.68482729  0.28695814  0.86444898  1
  Li  Li9  1  0.31517271  0.71304186  0.13555102  1
  Li  Li10  1  0.78871607  0.74279100  0.02467630  1
  Li  Li11  1  0.21128393  0.25720900  0.97532370  1
  Er  Er12  1  0.19524176  0.75659105  0.89056214  1
  Er  Er13  1  0.80475824  0.24340895  0.10943786  1
  Er  Er14  1  0.30475824  0.25659105  0.39056214  1
  Er  Er15  1  0.69524176  0.74340895  0.60943786  1
  N  N16  1  0.62255721  0.39546351  0.43562741  1
  N  N17  1  0.70102080  0.26442793  0.76463788  1
  N  N18  1  0.61699852  0.92826392  0.10598044  1
  N  N19  1  0.88300148  0.42826392  0.60598044  1
  N  N20  1  0.37744279  0.60453649  0.56437259  1
  N  N21  1  0.99703940  0.14852810  0.44559409  1
  N  N22  1  0.19796844  0.73940877  0.77217287  1
  N  N23  1  0.80203156  0.26059123  0.22782713  1
  N  N24  1  0.00380604  0.55096294  0.09779451  1
  N  N25  1  0.38300148  0.07173608  0.89401956  1
  N  N26  1  0.99619396  0.44903706  0.90220549  1
  N  N27  1  0.11699852  0.57173608  0.39401956  1
  N  N28  1  0.87744279  0.89546351  0.93562741  1
  N  N29  1  0.49703940  0.35147190  0.05440591  1
  N  N30  1  0.30203156  0.23940877  0.27217287  1
  N  N31  1  0.12255721  0.10453649  0.06437259  1
  N  N32  1  0.50380604  0.94903706  0.40220549  1
  N  N33  1  0.00296060  0.85147190  0.55440591  1
  N  N34  1  0.49619396  0.05096294  0.59779451  1
  N  N35  1  0.20102080  0.23557207  0.73536212  1
  N  N36  1  0.79897920  0.76442793  0.26463788  1
  N  N37  1  0.50296060  0.64852810  0.94559409  1
  N  N38  1  0.29897920  0.73557207  0.23536212  1
  N  N39  1  0.69796844  0.76059123  0.72782713  1
  O  O40  1  0.29618086  0.74521111  0.28584942  1
  O  O41  1  0.63830248  0.02896553  0.57015558  1
  O  O42  1  0.13759191  0.89307722  0.52938996  1
  O  O43  1  0.60324430  0.65408066  0.70044875  1
  O  O44  1  0.59795599  0.82421025  0.40982065  1
  O  O45  1  0.24247091  0.54826767  0.54336623  1
  O  O46  1  0.11095286  0.24890524  0.46693006  1
  O  O47  1  0.57470813  0.42473916  0.38733034  1
  O  O48  1  0.90204401  0.32421025  0.90982065  1
  O  O49  1  0.63759191  0.60692278  0.97061004  1
  O  O50  1  0.53315842  0.79502731  0.10064921  1
  O  O51  1  0.01908498  0.20297447  0.03628140  1
  O  O52  1  0.75983472  0.94786518  0.07870329  1
  O  O53  1  0.74016528  0.44786518  0.57870329  1
  O  O54  1  0.39201976  0.62514209  0.20946699  1
  O  O55  1  0.42913180  0.94942526  0.86314573  1
  O  O56  1  0.61095286  0.25109476  0.03306994  1
  O  O57  1  0.69972912  0.76919197  0.77774378  1
  O  O58  1  0.51908498  0.29702553  0.46371860  1
  O  O59  1  0.38904714  0.74890524  0.96693006  1
  O  O60  1  0.42529187  0.57526084  0.61266966  1
  O  O61  1  0.10798024  0.12514209  0.70946699  1
  O  O62  1  0.45923066  0.93804306  0.63228699  1
  O  O63  1  0.07086820  0.44942526  0.36314573  1
  O  O64  1  0.48091502  0.70297447  0.53628140  1
  O  O65  1  0.96684158  0.29502731  0.60064921  1
  O  O66  1  0.25983472  0.55213482  0.42129671  1
  O  O67  1  0.70381914  0.25478889  0.71415058  1
  O  O68  1  0.30027088  0.23080803  0.22225622  1
  O  O69  1  0.95923066  0.56195694  0.86771301  1
  O  O70  1  0.92529187  0.92473916  0.88733034  1
  O  O71  1  0.54076934  0.06195694  0.36771301  1
  O  O72  1  0.92913180  0.55057474  0.63685427  1
  O  O73  1  0.47144306  0.59336587  0.89739190  1
  O  O74  1  0.20798873  0.14111833  0.30200690  1
  O  O75  1  0.70798873  0.35888167  0.19799310  1
  O  O76  1  0.24016528  0.05213482  0.92129671  1
  O  O77  1  0.03315842  0.70497269  0.39935079  1
  O  O78  1  0.29201127  0.64111833  0.80200690  1
  O  O79  1  0.79019605  0.16500766  0.79473439  1
  O  O80  1  0.79201127  0.85888167  0.69799310  1
  O  O81  1  0.86240809  0.10692278  0.47061004  1
  O  O82  1  0.36240809  0.39307722  0.02938996  1
  O  O83  1  0.70980395  0.66500766  0.29473439  1
  O  O84  1  0.97144306  0.90663413  0.60260810  1
  O  O85  1  0.04076934  0.43804306  0.13228699  1
  O  O86  1  0.29019605  0.33499234  0.70526561  1
  O  O87  1  0.40204401  0.17578975  0.59017935  1
  O  O88  1  0.09795599  0.67578975  0.09017935  1
  O  O89  1  0.89201976  0.87485791  0.29053301  1
  O  O90  1  0.13830248  0.47103447  0.92984442  1
  O  O91  1  0.75752909  0.45173233  0.45663377  1
  O  O92  1  0.98091502  0.79702553  0.96371860  1
  O  O93  1  0.57086820  0.05057474  0.13685427  1
  O  O94  1  0.39675570  0.34591934  0.29955125  1
  O  O95  1  0.02855694  0.09336587  0.39739190  1
  O  O96  1  0.20381914  0.24521111  0.78584942  1
  O  O97  1  0.46684158  0.20497269  0.89935079  1
  O  O98  1  0.86169752  0.52896553  0.07015558  1
  O  O99  1  0.20980395  0.83499234  0.20526561  1
  O  O100  1  0.52855694  0.40663413  0.10260810  1
  O  O101  1  0.10324430  0.84591934  0.79955125  1
  O  O102  1  0.07470813  0.07526084  0.11266966  1
  O  O103  1  0.36169752  0.97103447  0.42984442  1
  O  O104  1  0.25752909  0.04826767  0.04336623  1
  O  O105  1  0.19972912  0.73080803  0.72225622  1
  O  O106  1  0.74247091  0.95173233  0.95663377  1
  O  O107  1  0.80027088  0.26919197  0.27774378  1
  O  O108  1  0.60798024  0.37485791  0.79053301  1
  O  O109  1  0.89675570  0.15408066  0.20044875  1
  O  O110  1  0.88904714  0.75109476  0.53306994  1
  O  O111  1  0.79618086  0.75478889  0.21415058  1
