# generated using pymatgen
data_CrCdF6
_symmetry_space_group_name_H-M   'P 1'
_cell_length_a   5.67514809
_cell_length_b   5.67514809
_cell_length_c   5.67514810
_cell_angle_alpha   56.01706576
_cell_angle_beta   56.01706582
_cell_angle_gamma   56.01706577
_symmetry_Int_Tables_number   1
_chemical_formula_structural   CrCdF6
_chemical_formula_sum   'Cr1 Cd1 F6'
_cell_volume   117.32087916
_cell_formula_units_Z   1
loop_
 _symmetry_equiv_pos_site_id
 _symmetry_equiv_pos_as_xyz
  1  'x, y, z'
loop_
 _atom_site_type_symbol
 _atom_site_label
 _atom_site_symmetry_multiplicity
 _atom_site_fract_x
 _atom_site_fract_y
 _atom_site_fract_z
 _atom_site_occupancy
  F  F0  1  0.35042345  0.09401387  0.78259549  1
  F  F1  1  0.09401387  0.78259549  0.35042345  1
  F  F2  1  0.21740451  0.64957655  0.90598613  1
  F  F3  1  0.90598613  0.21740451  0.64957655  1
  F  F4  1  0.64957655  0.90598613  0.21740451  1
  F  F5  1  0.78259549  0.35042345  0.09401387  1
  Cr  Cr6  1  0.00000000  0.00000000  0.00000000  1
  Cd  Cd7  1  0.50000000  0.50000000  0.50000000  1
