# generated using pymatgen
data_P2RhClF6
_symmetry_space_group_name_H-M   'P 1'
_cell_length_a   10.17607291
_cell_length_b   10.70566862
_cell_length_c   14.67922051
_cell_angle_alpha   108.89763180
_cell_angle_beta   90.00000000
_cell_angle_gamma   90.00000000
_symmetry_Int_Tables_number   1
_chemical_formula_structural   P2RhClF6
_chemical_formula_sum   'P16 Rh8 Cl8 F48'
_cell_volume   1512.98097748
_cell_formula_units_Z   8
loop_
 _symmetry_equiv_pos_site_id
 _symmetry_equiv_pos_as_xyz
  1  'x, y, z'
loop_
 _atom_site_type_symbol
 _atom_site_label
 _atom_site_symmetry_multiplicity
 _atom_site_fract_x
 _atom_site_fract_y
 _atom_site_fract_z
 _atom_site_occupancy
  P  P0  1  0.75787079  0.02717742  0.04794925  1
  P  P1  1  0.93888199  0.08123204  0.70020281  1
  P  P2  1  0.27650123  0.00986706  0.46718434  1
  P  P3  1  0.96288708  0.60826625  0.70831442  1
  P  P4  1  0.74212921  0.52717742  0.54794925  1
  P  P5  1  0.56111801  0.58123204  0.20020281  1
  P  P6  1  0.53711292  0.10826625  0.20831442  1
  P  P7  1  0.72349877  0.99013294  0.53281566  1
  P  P8  1  0.24212921  0.97282258  0.95205075  1
  P  P9  1  0.03711292  0.39173375  0.29168558  1
  P  P10  1  0.77650123  0.49013294  0.03281566  1
  P  P11  1  0.25787079  0.47282258  0.45205075  1
  P  P12  1  0.46288708  0.89173375  0.79168558  1
  P  P13  1  0.06111801  0.91876796  0.29979719  1
  P  P14  1  0.43888199  0.41876796  0.79979719  1
  P  P15  1  0.22349877  0.50986706  0.96718434  1
  Rh  Rh16  1  0.90881185  0.92062461  0.56831851  1
  Rh  Rh17  1  0.42082617  0.85920070  0.92598325  1
  Rh  Rh18  1  0.92082617  0.64079930  0.57401675  1
  Rh  Rh19  1  0.07917383  0.35920070  0.42598325  1
  Rh  Rh20  1  0.40881185  0.57937539  0.93168149  1
  Rh  Rh21  1  0.09118815  0.07937539  0.43168149  1
  Rh  Rh22  1  0.57917383  0.14079930  0.07401675  1
  Rh  Rh23  1  0.59118815  0.42062461  0.06831851  1
  Cl  Cl24  1  0.62363894  0.21605099  0.93886448  1
  Cl  Cl25  1  0.37636106  0.78394901  0.06113552  1
  Cl  Cl26  1  0.40637674  0.30458708  0.10524473  1
  Cl  Cl27  1  0.90637674  0.19541292  0.39475527  1
  Cl  Cl28  1  0.59362326  0.69541292  0.89475527  1
  Cl  Cl29  1  0.12363894  0.28394901  0.56113552  1
  Cl  Cl30  1  0.09362326  0.80458708  0.60524473  1
  Cl  Cl31  1  0.87636106  0.71605099  0.43886448  1
  F  F32  1  0.09756581  0.58168856  0.94520791  1
  F  F33  1  0.70170758  0.45091890  0.44105733  1
  F  F34  1  0.32524495  0.86344857  0.42181931  1
  F  F35  1  0.21395875  0.08412041  0.90630575  1
  F  F36  1  0.88846409  0.10896888  0.08032693  1
  F  F37  1  0.40926810  0.01415748  0.76640696  1
  F  F38  1  0.61153591  0.60896888  0.58032693  1
  F  F39  1  0.58256770  0.36459403  0.77310649  1
  F  F40  1  0.28604125  0.58412041  0.40630575  1
  F  F41  1  0.20170758  0.04908110  0.05894267  1
  F  F42  1  0.30684062  0.02984037  0.57618011  1
  F  F43  1  0.82524495  0.63655143  0.07818069  1
  F  F44  1  0.13611275  0.78369942  0.27594743  1
  F  F45  1  0.09073190  0.51415748  0.26640696  1
  F  F46  1  0.19315938  0.52984037  0.07618011  1
  F  F47  1  0.90243419  0.41831144  0.05479209  1
  F  F48  1  0.17475505  0.36344857  0.92181931  1
  F  F49  1  0.71395875  0.41587959  0.59369425  1
  F  F50  1  0.90926810  0.48584252  0.73359304  1
  F  F51  1  0.59756581  0.91831144  0.55479209  1
  F  F52  1  0.58299182  0.21955074  0.30233100  1
  F  F53  1  0.11157461  0.60037416  0.73616861  1
  F  F54  1  0.11153591  0.89103112  0.91967307  1
  F  F55  1  0.08256770  0.13540597  0.72689351  1
  F  F56  1  0.88842539  0.39962584  0.26383139  1
  F  F57  1  0.67475505  0.13655143  0.57818069  1
  F  F58  1  0.61157461  0.89962584  0.76383139  1
  F  F59  1  0.29829242  0.54908110  0.55894267  1
  F  F60  1  0.41700818  0.78044926  0.69766900  1
  F  F61  1  0.86388725  0.21630058  0.72405257  1
  F  F62  1  0.80684062  0.47015963  0.92381989  1
  F  F63  1  0.40708401  0.44972042  0.70417673  1
  F  F64  1  0.63611275  0.71630058  0.22405257  1
  F  F65  1  0.90708401  0.05027958  0.79582327  1
  F  F66  1  0.59073190  0.98584252  0.23359304  1
  F  F67  1  0.59291599  0.55027958  0.29582327  1
  F  F68  1  0.08299182  0.28044926  0.19766900  1
  F  F69  1  0.91743230  0.86459403  0.27310649  1
  F  F70  1  0.09291599  0.94972042  0.20417673  1
  F  F71  1  0.41743230  0.63540597  0.22689351  1
  F  F72  1  0.78604125  0.91587959  0.09369425  1
  F  F73  1  0.38846409  0.39103112  0.41967307  1
  F  F74  1  0.79829242  0.95091890  0.94105733  1
  F  F75  1  0.38842539  0.10037416  0.23616861  1
  F  F76  1  0.91700818  0.71955074  0.80233100  1
  F  F77  1  0.69315938  0.97015963  0.42381989  1
  F  F78  1  0.40243419  0.08168856  0.44520791  1
  F  F79  1  0.36388725  0.28369942  0.77594743  1
