# generated using pymatgen
data_NaSmSe2O7
_symmetry_space_group_name_H-M   'P 1'
_cell_length_a   7.00171741
_cell_length_b   8.34516416
_cell_length_c   10.92291151
_cell_angle_alpha   91.36088517
_cell_angle_beta   90.00000000
_cell_angle_gamma   90.00000000
_symmetry_Int_Tables_number   1
_chemical_formula_structural   NaSmSe2O7
_chemical_formula_sum   'Na4 Sm4 Se8 O28'
_cell_volume   638.05095338
_cell_formula_units_Z   4
loop_
 _symmetry_equiv_pos_site_id
 _symmetry_equiv_pos_as_xyz
  1  'x, y, z'
loop_
 _atom_site_type_symbol
 _atom_site_label
 _atom_site_symmetry_multiplicity
 _atom_site_fract_x
 _atom_site_fract_y
 _atom_site_fract_z
 _atom_site_occupancy
  Na  Na0  1  0.62606934  0.18856502  0.93706704  1
  Na  Na1  1  0.12606934  0.31143498  0.06293296  1
  Na  Na2  1  0.37393066  0.81143498  0.06293296  1
  Na  Na3  1  0.87393066  0.68856502  0.93706704  1
  Sm  Sm4  1  0.14879789  0.80489255  0.58606553  1
  Sm  Sm5  1  0.64879789  0.69510745  0.41393447  1
  Sm  Sm6  1  0.85120211  0.19510745  0.41393447  1
  Sm  Sm7  1  0.35120211  0.30489255  0.58606553  1
  Se  Se8  1  0.67037371  0.94364310  0.66806342  1
  Se  Se9  1  0.82962629  0.44364310  0.66806342  1
  Se  Se10  1  0.32962629  0.05635690  0.33193658  1
  Se  Se11  1  0.85773687  0.95664089  0.16140591  1
  Se  Se12  1  0.17037371  0.55635690  0.33193658  1
  Se  Se13  1  0.64226313  0.45664089  0.16140591  1
  Se  Se14  1  0.35773687  0.54335911  0.83859409  1
  Se  Se15  1  0.14226313  0.04335911  0.83859409  1
  O  O16  1  0.77702237  0.92221796  0.30504665  1
  O  O17  1  0.15877981  0.06492040  0.45029865  1
  O  O18  1  0.11508892  0.35843244  0.33992635  1
  O  O19  1  0.27702237  0.57778204  0.69495335  1
  O  O20  1  0.99496659  0.66248841  0.41306622  1
  O  O21  1  0.43952041  0.35591142  0.81042158  1
  O  O22  1  0.52767172  0.67108196  0.88152425  1
  O  O23  1  0.50503341  0.16248841  0.41306622  1
  O  O24  1  0.56047959  0.64408858  0.18957842  1
  O  O25  1  0.38491108  0.85843244  0.33992635  1
  O  O26  1  0.84122019  0.93507960  0.54970135  1
  O  O27  1  0.72297763  0.42221796  0.30504665  1
  O  O28  1  0.06047959  0.85591142  0.81042158  1
  O  O29  1  0.68397847  0.95301976  0.05763965  1
  O  O30  1  0.88491108  0.64156756  0.66007365  1
  O  O31  1  0.61508892  0.14156756  0.66007365  1
  O  O32  1  0.97232828  0.17108196  0.88152425  1
  O  O33  1  0.49496659  0.83751159  0.58693378  1
  O  O34  1  0.34122019  0.56492040  0.45029865  1
  O  O35  1  0.93952041  0.14408858  0.18957842  1
  O  O36  1  0.65877981  0.43507960  0.54970135  1
  O  O37  1  0.18397847  0.54698024  0.94236035  1
  O  O38  1  0.02767172  0.82891804  0.11847575  1
  O  O39  1  0.81602153  0.45301976  0.05763965  1
  O  O40  1  0.47232828  0.32891804  0.11847575  1
  O  O41  1  0.00503341  0.33751159  0.58693378  1
  O  O42  1  0.22297763  0.07778204  0.69495335  1
  O  O43  1  0.31602153  0.04698024  0.94236035  1
