# generated using pymatgen
data_KLi(PO3)2
_symmetry_space_group_name_H-M   'P 1'
_cell_length_a   9.89274914
_cell_length_b   9.89274931
_cell_length_c   12.01527569
_cell_angle_alpha   90.19260741
_cell_angle_beta   90.19260740
_cell_angle_gamma   90.32156195
_symmetry_Int_Tables_number   1
_chemical_formula_structural   KLi(PO3)2
_chemical_formula_sum   'K8 Li8 P16 O48'
_cell_volume   1175.86094326
_cell_formula_units_Z   8
loop_
 _symmetry_equiv_pos_site_id
 _symmetry_equiv_pos_as_xyz
  1  'x, y, z'
loop_
 _atom_site_type_symbol
 _atom_site_label
 _atom_site_symmetry_multiplicity
 _atom_site_fract_x
 _atom_site_fract_y
 _atom_site_fract_z
 _atom_site_occupancy
  K  K0  1  0.46888978  0.22128656  0.95571727  1
  K  K1  1  0.77871344  0.53111022  0.54428273  1
  K  K2  1  0.25351291  0.00131741  0.47127221  1
  K  K3  1  0.53111022  0.77871344  0.04428273  1
  K  K4  1  0.22128656  0.46888978  0.45571727  1
  K  K5  1  0.74648709  0.99868259  0.52872779  1
  K  K6  1  0.99868259  0.74648709  0.02872779  1
  K  K7  1  0.00131741  0.25351291  0.97127221  1
  Li  Li8  1  0.22789759  0.38818084  0.12758691  1
  Li  Li9  1  0.11732924  0.74401830  0.56784524  1
  Li  Li10  1  0.25598170  0.88267076  0.93215476  1
  Li  Li11  1  0.77210241  0.61181916  0.87241309  1
  Li  Li12  1  0.61181916  0.77210241  0.37241309  1
  Li  Li13  1  0.38818084  0.22789759  0.62758691  1
  Li  Li14  1  0.74401830  0.11732924  0.06784524  1
  Li  Li15  1  0.88267076  0.25598170  0.43215476  1
  P  P16  1  0.48018856  0.51981144  0.25000000  1
  P  P17  1  0.03432648  0.96567352  0.75000000  1
  P  P18  1  0.71052333  0.44850497  0.09897501  1
  P  P19  1  0.05197695  0.53064125  0.75178041  1
  P  P20  1  0.55149503  0.28947667  0.40102499  1
  P  P21  1  0.44850497  0.71052333  0.59897501  1
  P  P22  1  0.94802305  0.46935875  0.24821959  1
  P  P23  1  0.53064125  0.05197695  0.25178041  1
  P  P24  1  0.94612732  0.75297577  0.33673158  1
  P  P25  1  0.24702423  0.05387268  0.16326842  1
  P  P26  1  0.51981144  0.48018856  0.75000000  1
  P  P27  1  0.46935875  0.94802305  0.74821959  1
  P  P28  1  0.75297577  0.94612732  0.83673158  1
  P  P29  1  0.96567352  0.03432648  0.25000000  1
  P  P30  1  0.05387268  0.24702423  0.66326842  1
  P  P31  1  0.28947667  0.55149503  0.90102499  1
  O  O32  1  0.87103073  0.94729975  0.74231761  1
  O  O33  1  0.54802906  0.44497857  0.35708922  1
  O  O34  1  0.12896927  0.05270025  0.25768239  1
  O  O35  1  0.21038330  0.54997690  0.78223156  1
  O  O36  1  0.96379550  0.41986613  0.36586336  1
  O  O37  1  0.52061782  0.66552020  0.25880558  1
  O  O38  1  0.78961670  0.45002310  0.21776844  1
  O  O39  1  0.41606322  0.03415815  0.65607009  1
  O  O40  1  0.08450205  0.91331808  0.85905806  1
  O  O41  1  0.66552020  0.52061782  0.75880558  1
  O  O42  1  0.58393678  0.96584185  0.34392991  1
  O  O43  1  0.94729975  0.87103073  0.24231761  1
  O  O44  1  0.45197094  0.55502143  0.64291078  1
  O  O45  1  0.06737780  0.76456651  0.41104293  1
  O  O46  1  0.42464158  0.25815480  0.46465209  1
  O  O47  1  0.58013387  0.03620450  0.13413664  1
  O  O48  1  0.41986613  0.96379550  0.86586336  1
  O  O49  1  0.25815480  0.42464158  0.96465209  1
  O  O50  1  0.80884589  0.74191264  0.38872839  1
  O  O51  1  0.25808736  0.19115411  0.11127161  1
  O  O52  1  0.91331808  0.08450205  0.35905806  1
  O  O53  1  0.03620450  0.58013387  0.63413664  1
  O  O54  1  0.23543349  0.93262220  0.08895707  1
  O  O55  1  0.96833609  0.63234352  0.24562456  1
  O  O56  1  0.44497857  0.54802906  0.85708922  1
  O  O57  1  0.31445568  0.72659047  0.54209941  1
  O  O58  1  0.03166391  0.36765648  0.75437544  1
  O  O59  1  0.57535842  0.74184520  0.53534791  1
  O  O60  1  0.08668192  0.91549795  0.64094194  1
  O  O61  1  0.96584185  0.58393678  0.84392991  1
  O  O62  1  0.72659047  0.31445568  0.04209941  1
  O  O63  1  0.19115411  0.25808736  0.61127161  1
  O  O64  1  0.91549795  0.08668192  0.14094194  1
  O  O65  1  0.03415815  0.41606322  0.15607009  1
  O  O66  1  0.27340953  0.68554432  0.95790059  1
  O  O67  1  0.33447980  0.47938218  0.24119442  1
  O  O68  1  0.36765648  0.03166391  0.25437544  1
  O  O69  1  0.76456651  0.06737780  0.91104293  1
  O  O70  1  0.45002310  0.78961670  0.71776844  1
  O  O71  1  0.74191264  0.80884589  0.88872839  1
  O  O72  1  0.55502143  0.45197094  0.14291078  1
  O  O73  1  0.93262220  0.23543349  0.58895707  1
  O  O74  1  0.74184520  0.57535842  0.03534791  1
  O  O75  1  0.63234352  0.96833609  0.74562456  1
  O  O76  1  0.05270025  0.12896927  0.75768239  1
  O  O77  1  0.68554432  0.27340953  0.45790059  1
  O  O78  1  0.47938218  0.33447980  0.74119442  1
  O  O79  1  0.54997690  0.21038330  0.28223156  1
