# generated using pymatgen
data_Na9ZrP4ClO16
_symmetry_space_group_name_H-M   'P 1'
_cell_length_a   5.44039736
_cell_length_b   9.16774810
_cell_length_c   9.26593530
_cell_angle_alpha   111.07897754
_cell_angle_beta   91.87785100
_cell_angle_gamma   90.30470132
_symmetry_Int_Tables_number   1
_chemical_formula_structural   Na9ZrP4ClO16
_chemical_formula_sum   'Na9 Zr1 P4 Cl1 O16'
_cell_volume   430.92101850
_cell_formula_units_Z   1
loop_
 _symmetry_equiv_pos_site_id
 _symmetry_equiv_pos_as_xyz
  1  'x, y, z'
loop_
 _atom_site_type_symbol
 _atom_site_label
 _atom_site_symmetry_multiplicity
 _atom_site_fract_x
 _atom_site_fract_y
 _atom_site_fract_z
 _atom_site_occupancy
  Na  Na0  1  0.53487745  0.64608345  0.39626077  1
  Na  Na1  1  0.41823056  0.98232610  0.36403350  1
  Na  Na2  1  0.51449474  0.50466653  0.98677107  1
  Na  Na3  1  0.05054645  0.83053491  0.57236431  1
  Na  Na4  1  0.45444282  0.36356328  0.59044959  1
  Na  Na5  1  0.92080186  0.17874308  0.40974515  1
  Na  Na6  1  0.96904324  0.57481091  0.82763930  1
  Na  Na7  1  0.05345205  0.44028425  0.15793919  1
  Na  Na8  1  0.52533290  0.08364054  0.76588431  1
  Zr  Zr9  1  0.01166898  0.00197991  0.99667044  1
  P  P10  1  0.53123992  0.24497500  0.18300818  1
  P  P11  1  0.96274223  0.79103255  0.24032175  1
  P  P12  1  0.48457971  0.76574710  0.79731570  1
  P  P13  1  0.03211151  0.21337206  0.74058733  1
  Cl  Cl14  1  0.00308444  0.50150067  0.49504878  1
  O  O15  1  0.77317965  0.85253678  0.36812192  1
  O  O16  1  0.79793623  0.19901771  0.11895412  1
  O  O17  1  0.51467814  0.21532535  0.33502171  1
  O  O18  1  0.03148677  0.93845102  0.19205861  1
  O  O19  1  0.22402278  0.80883044  0.87147958  1
  O  O20  1  0.68758639  0.87470880  0.91145980  1
  O  O21  1  0.20242095  0.74903693  0.30899290  1
  O  O22  1  0.86767411  0.65203945  0.09808166  1
  O  O23  1  0.53511257  0.59696784  0.78017102  1
  O  O24  1  0.48045528  0.80424123  0.64926737  1
  O  O25  1  0.77475238  0.25517962  0.69372480  1
  O  O26  1  0.19962663  0.14736027  0.59916763  1
  O  O27  1  0.15887866  0.35308042  0.86958600  1
  O  O28  1  0.33830440  0.13625184  0.06048547  1
  O  O29  1  0.99223735  0.07133744  0.80000732  1
  O  O30  1  0.48799884  0.41337352  0.19437973  1
