# generated using pymatgen
data_NaVF4
_symmetry_space_group_name_H-M   'P 1'
_cell_length_a   5.41544071
_cell_length_b   7.69643732
_cell_length_c   8.10451921
_cell_angle_alpha   102.00323335
_cell_angle_beta   90.00000000
_cell_angle_gamma   90.00000000
_symmetry_Int_Tables_number   1
_chemical_formula_structural   NaVF4
_chemical_formula_sum   'Na4 V4 F16'
_cell_volume   330.40756448
_cell_formula_units_Z   4
loop_
 _symmetry_equiv_pos_site_id
 _symmetry_equiv_pos_as_xyz
  1  'x, y, z'
loop_
 _atom_site_type_symbol
 _atom_site_label
 _atom_site_symmetry_multiplicity
 _atom_site_fract_x
 _atom_site_fract_y
 _atom_site_fract_z
 _atom_site_occupancy
  F  F0  1  0.13402853  0.05133813  0.17510487  1
  F  F1  1  0.63402853  0.44866187  0.82489513  1
  F  F2  1  0.86597147  0.94866187  0.82489513  1
  F  F3  1  0.36597147  0.55133813  0.17510487  1
  F  F4  1  0.55297443  0.20571409  0.03516130  1
  F  F5  1  0.05297443  0.29428591  0.96483870  1
  F  F6  1  0.44702557  0.79428591  0.96483870  1
  F  F7  1  0.94702557  0.70571409  0.03516130  1
  F  F8  1  0.45610555  0.31108473  0.37078840  1
  F  F9  1  0.95610555  0.18891527  0.62921160  1
  F  F10  1  0.54389445  0.68891527  0.62921160  1
  F  F11  1  0.04389445  0.81108473  0.37078840  1
  F  F12  1  0.97514637  0.37950048  0.31201381  1
  F  F13  1  0.47514637  0.12049952  0.68798619  1
  F  F14  1  0.02485363  0.62049952  0.68798619  1
  F  F15  1  0.52485363  0.87950048  0.31201381  1
  Na  Na16  1  0.78359664  0.11485801  0.36477301  1
  Na  Na17  1  0.28359664  0.38514199  0.63522699  1
  Na  Na18  1  0.21640336  0.88514199  0.63522699  1
  Na  Na19  1  0.71640336  0.61485801  0.36477301  1
  V  V20  1  0.25387462  0.30036445  0.17247013  1
  V  V21  1  0.75387462  0.19963555  0.82752987  1
  V  V22  1  0.74612538  0.69963555  0.82752987  1
  V  V23  1  0.24612538  0.80036445  0.17247013  1
