# generated using pymatgen
data_Zn2Si3Pb4SO15
_symmetry_space_group_name_H-M   'P 1'
_cell_length_a   5.32813472
_cell_length_b   11.49761960
_cell_length_c   12.79870070
_cell_angle_alpha   107.99208926
_cell_angle_beta   90.00000000
_cell_angle_gamma   90.00000000
_symmetry_Int_Tables_number   1
_chemical_formula_structural   Zn2Si3Pb4SO15
_chemical_formula_sum   'Zn4 Si6 Pb8 S2 O30'
_cell_volume   745.71833355
_cell_formula_units_Z   2
loop_
 _symmetry_equiv_pos_site_id
 _symmetry_equiv_pos_as_xyz
  1  'x, y, z'
loop_
 _atom_site_type_symbol
 _atom_site_label
 _atom_site_symmetry_multiplicity
 _atom_site_fract_x
 _atom_site_fract_y
 _atom_site_fract_z
 _atom_site_occupancy
  Zn  Zn0  1  0.01872303  0.36068419  0.38706820  1
  Zn  Zn1  1  0.98999747  0.07916350  0.64573091  1
  Zn  Zn2  1  0.48999747  0.92083650  0.35426909  1
  Zn  Zn3  1  0.51872303  0.63931581  0.61293180  1
  Si  Si4  1  0.44127718  0.63863430  0.18358902  1
  Si  Si5  1  0.97904547  0.07736246  0.37573854  1
  Si  Si6  1  0.47904547  0.92263754  0.62426146  1
  Si  Si7  1  0.94127718  0.36136570  0.81641098  1
  Si  Si8  1  0.01764500  0.51436156  0.65545342  1
  Si  Si9  1  0.51764500  0.48563844  0.34454658  1
  Pb  Pb10  1  0.61343336  0.26804044  0.56306545  1
  Pb  Pb11  1  0.11343336  0.73195956  0.43693455  1
  Pb  Pb12  1  0.45414125  0.54325859  0.88670915  1
  Pb  Pb13  1  0.98110871  0.81552298  0.12834871  1
  Pb  Pb14  1  0.95414125  0.45674141  0.11329085  1
  Pb  Pb15  1  0.49697975  0.15240567  0.21737122  1
  Pb  Pb16  1  0.99697975  0.84759433  0.78262878  1
  Pb  Pb17  1  0.48110871  0.18447702  0.87165129  1
  S  S18  1  0.50861973  0.85269271  0.96732626  1
  S  S19  1  0.00861973  0.14730729  0.03267374  1
  O  O20  1  0.76893518  0.21693895  0.06961711  1
  O  O21  1  0.36616133  0.80706881  0.66174639  1
  O  O22  1  0.32923966  0.05054307  0.68964410  1
  O  O23  1  0.73690127  0.65434751  0.15966576  1
  O  O24  1  0.93111438  0.39979646  0.54760780  1
  O  O25  1  0.86616133  0.19293119  0.33825361  1
  O  O26  1  0.22385454  0.23613118  0.07070176  1
  O  O27  1  0.90845300  0.47761410  0.76418404  1
  O  O28  1  0.41023959  0.88648077  0.49218344  1
  O  O29  1  0.37788532  0.35812375  0.34609109  1
  O  O30  1  0.31385843  0.76087899  0.27252068  1
  O  O31  1  0.23690127  0.34565249  0.84033424  1
  O  O32  1  0.28199835  0.06269742  0.35112086  1
  O  O33  1  0.53112169  0.95334073  0.91951415  1
  O  O34  1  0.40845300  0.52238590  0.23581596  1
  O  O35  1  0.78199835  0.93730258  0.64887914  1
  O  O36  1  0.43111438  0.60020354  0.45239220  1
  O  O37  1  0.82923966  0.94945693  0.31035590  1
  O  O38  1  0.51523196  0.89632493  0.09068858  1
  O  O39  1  0.32117418  0.52818914  0.66960387  1
  O  O40  1  0.76716017  0.40317234  0.92777749  1
  O  O41  1  0.72385454  0.76386882  0.92929824  1
  O  O42  1  0.87788532  0.64187625  0.65390891  1
  O  O43  1  0.82117418  0.47181086  0.33039613  1
  O  O44  1  0.26716017  0.59682766  0.07222251  1
  O  O45  1  0.26893518  0.78306105  0.93038289  1
  O  O46  1  0.01523196  0.10367507  0.90931142  1
  O  O47  1  0.03112169  0.04665927  0.08048585  1
  O  O48  1  0.81385843  0.23912101  0.72747932  1
  O  O49  1  0.91023959  0.11351923  0.50781656  1
