# generated using pymatgen
data_La2Ti3O9
_symmetry_space_group_name_H-M   'P 1'
_cell_length_a   7.93799945
_cell_length_b   7.93799945
_cell_length_c   7.93799945
_cell_angle_alpha   109.47122063
_cell_angle_beta   109.47122063
_cell_angle_gamma   109.47122063
_symmetry_Int_Tables_number   1
_chemical_formula_structural   La2Ti3O9
_chemical_formula_sum   'La4 Ti6 O18'
_cell_volume   385.04483568
_cell_formula_units_Z   2
loop_
 _symmetry_equiv_pos_site_id
 _symmetry_equiv_pos_as_xyz
  1  'x, y, z'
loop_
 _atom_site_type_symbol
 _atom_site_label
 _atom_site_symmetry_multiplicity
 _atom_site_fract_x
 _atom_site_fract_y
 _atom_site_fract_z
 _atom_site_occupancy
  La  La0  1  0.59656745  0.00000000  0.00000000  1
  La  La1  1  0.40343255  0.40343255  0.40343255  1
  La  La2  1  0.00000000  0.59656745  0.00000000  1
  La  La3  1  0.00000000  0.00000000  0.59656745  1
  Ti  Ti4  1  0.84461102  0.50000000  0.34461102  1
  Ti  Ti5  1  0.65538898  0.15538898  0.50000000  1
  Ti  Ti6  1  0.50000000  0.65538898  0.15538898  1
  Ti  Ti7  1  0.50000000  0.34461102  0.84461102  1
  Ti  Ti8  1  0.34461102  0.84461102  0.50000000  1
  Ti  Ti9  1  0.15538898  0.50000000  0.65538898  1
  O  O10  1  0.73952090  0.34772472  0.03409678  1
  O  O11  1  0.60820382  0.26047910  0.29457589  1
  O  O12  1  0.35854314  0.00000000  0.35854314  1
  O  O13  1  0.64145686  0.00000000  0.64145686  1
  O  O14  1  0.35854314  0.35854314  0.00000000  1
  O  O15  1  0.64145686  0.64145686  0.00000000  1
  O  O16  1  0.96590322  0.31362794  0.70542411  1
  O  O17  1  0.68637206  0.65227528  0.39179618  1
  O  O18  1  0.65227528  0.39179618  0.68637206  1
  O  O19  1  0.34772472  0.03409678  0.73952090  1
  O  O20  1  0.29457589  0.60820382  0.26047910  1
  O  O21  1  0.70542411  0.96590322  0.31362794  1
  O  O22  1  0.26047910  0.29457589  0.60820382  1
  O  O23  1  0.00000000  0.35854314  0.35854314  1
  O  O24  1  0.39179618  0.68637206  0.65227528  1
  O  O25  1  0.03409678  0.73952090  0.34772472  1
  O  O26  1  0.00000000  0.64145686  0.64145686  1
  O  O27  1  0.31362794  0.70542411  0.96590322  1
