# generated using pymatgen
data_CdSeO3
_symmetry_space_group_name_H-M   'P 1'
_cell_length_a   5.84040242
_cell_length_b   8.83237728
_cell_length_c   13.15029924
_cell_angle_alpha   90.00000000
_cell_angle_beta   90.00000000
_cell_angle_gamma   101.09061512
_symmetry_Int_Tables_number   1
_chemical_formula_structural   CdSeO3
_chemical_formula_sum   'Cd8 Se8 O24'
_cell_volume   665.68461859
_cell_formula_units_Z   8
loop_
 _symmetry_equiv_pos_site_id
 _symmetry_equiv_pos_as_xyz
  1  'x, y, z'
loop_
 _atom_site_type_symbol
 _atom_site_label
 _atom_site_symmetry_multiplicity
 _atom_site_fract_x
 _atom_site_fract_y
 _atom_site_fract_z
 _atom_site_occupancy
  Cd  Cd0  1  0.37816968  0.85122549  0.75557715  1
  Cd  Cd1  1  0.81845304  0.11329452  0.57712723  1
  Cd  Cd2  1  0.62183032  0.64877451  0.25557715  1
  Cd  Cd3  1  0.18154696  0.38670548  0.07712723  1
  Cd  Cd4  1  0.62183032  0.14877451  0.24442285  1
  Cd  Cd5  1  0.81845304  0.61329452  0.92287277  1
  Cd  Cd6  1  0.37816968  0.35122549  0.74442285  1
  Cd  Cd7  1  0.18154696  0.88670548  0.42287277  1
  Se  Se8  1  0.58651343  0.23554151  0.97493636  1
  Se  Se9  1  0.02906277  0.48115496  0.33040089  1
  Se  Se10  1  0.58651343  0.73554151  0.52506364  1
  Se  Se11  1  0.97093723  0.01884504  0.83040089  1
  Se  Se12  1  0.02906277  0.98115496  0.16959911  1
  Se  Se13  1  0.41348657  0.26445849  0.47493636  1
  Se  Se14  1  0.41348657  0.76445849  0.02506364  1
  Se  Se15  1  0.97093723  0.51884504  0.66959911  1
  O  O16  1  0.96591591  0.66277906  0.34974699  1
  O  O17  1  0.24379026  0.50345830  0.23674061  1
  O  O18  1  0.84260778  0.36983347  0.98034487  1
  O  O19  1  0.03408409  0.83722094  0.84974699  1
  O  O20  1  0.84260778  0.86983347  0.51965513  1
  O  O21  1  0.46190588  0.72766143  0.40500488  1
  O  O22  1  0.15739222  0.63016653  0.01965513  1
  O  O23  1  0.40251678  0.84601390  0.57925759  1
  O  O24  1  0.15739222  0.13016653  0.48034487  1
  O  O25  1  0.22412250  0.08569855  0.76228678  1
  O  O26  1  0.22412250  0.58569855  0.73771322  1
  O  O27  1  0.75620974  0.99654170  0.73674061  1
  O  O28  1  0.75620974  0.49654170  0.76325939  1
  O  O29  1  0.40251678  0.34601390  0.92074241  1
  O  O30  1  0.53809412  0.27233857  0.59499512  1
  O  O31  1  0.46190588  0.22766143  0.09499512  1
  O  O32  1  0.53809412  0.77233857  0.90500488  1
  O  O33  1  0.59748322  0.15398610  0.42074241  1
  O  O34  1  0.77587750  0.91430145  0.23771322  1
  O  O35  1  0.24379026  0.00345830  0.26325939  1
  O  O36  1  0.96591591  0.16277906  0.15025301  1
  O  O37  1  0.03408409  0.33722094  0.65025301  1
  O  O38  1  0.77587750  0.41430145  0.26228678  1
  O  O39  1  0.59748322  0.65398610  0.07925759  1
