# generated using pymatgen
data_CsIn3O5
_symmetry_space_group_name_H-M   'P 1'
_cell_length_a   3.40073823
_cell_length_b   10.29737974
_cell_length_c   16.79365997
_cell_angle_alpha   90.00000000
_cell_angle_beta   90.00000000
_cell_angle_gamma   90.00000000
_symmetry_Int_Tables_number   1
_chemical_formula_structural   CsIn3O5
_chemical_formula_sum   'Cs4 In12 O20'
_cell_volume   588.09202201
_cell_formula_units_Z   4
loop_
 _symmetry_equiv_pos_site_id
 _symmetry_equiv_pos_as_xyz
  1  'x, y, z'
loop_
 _atom_site_type_symbol
 _atom_site_label
 _atom_site_symmetry_multiplicity
 _atom_site_fract_x
 _atom_site_fract_y
 _atom_site_fract_z
 _atom_site_occupancy
  Cs  Cs0  1  0.75000000  0.03036539  0.62097606  1
  Cs  Cs1  1  0.25000000  0.46963461  0.12097606  1
  Cs  Cs2  1  0.75000000  0.53036539  0.87902394  1
  Cs  Cs3  1  0.25000000  0.96963461  0.37902394  1
  In  In4  1  0.75000000  0.68036035  0.68107430  1
  In  In5  1  0.75000000  0.18036035  0.81892570  1
  In  In6  1  0.25000000  0.14418578  0.98885762  1
  In  In7  1  0.25000000  0.64418578  0.51114238  1
  In  In8  1  0.25000000  0.39013338  0.66382838  1
  In  In9  1  0.75000000  0.85581422  0.01114238  1
  In  In10  1  0.25000000  0.81963965  0.18107430  1
  In  In11  1  0.25000000  0.31963965  0.31892570  1
  In  In12  1  0.75000000  0.10986662  0.16382838  1
  In  In13  1  0.75000000  0.60986662  0.33617162  1
  In  In14  1  0.75000000  0.35581422  0.48885762  1
  In  In15  1  0.25000000  0.89013338  0.83617162  1
  O  O16  1  0.25000000  0.19539934  0.21693106  1
  O  O17  1  0.25000000  0.76854169  0.61306226  1
  O  O18  1  0.25000000  0.27892671  0.55538106  1
  O  O19  1  0.75000000  0.73145831  0.11306226  1
  O  O20  1  0.25000000  0.47709566  0.42375719  1
  O  O21  1  0.75000000  0.72107329  0.44461894  1
  O  O22  1  0.75000000  0.80460066  0.78306894  1
  O  O23  1  0.25000000  0.06571950  0.77139204  1
  O  O24  1  0.75000000  0.30460066  0.71693106  1
  O  O25  1  0.75000000  0.93428050  0.22860796  1
  O  O26  1  0.25000000  0.26854169  0.88693774  1
  O  O27  1  0.75000000  0.43428050  0.27139204  1
  O  O28  1  0.25000000  0.97709566  0.07624281  1
  O  O29  1  0.25000000  0.69539934  0.28306894  1
  O  O30  1  0.75000000  0.23145831  0.38693774  1
  O  O31  1  0.75000000  0.52290434  0.57624281  1
  O  O32  1  0.25000000  0.77892671  0.94461894  1
  O  O33  1  0.75000000  0.02290434  0.92375719  1
  O  O34  1  0.75000000  0.22107329  0.05538106  1
  O  O35  1  0.25000000  0.56571950  0.72860796  1
