# generated using pymatgen
data_Ba2Cu(BO3)2
_symmetry_space_group_name_H-M   'P 1'
_cell_length_a   8.31547109
_cell_length_b   11.26386491
_cell_length_c   14.16057450
_cell_angle_alpha   90.00000000
_cell_angle_beta   90.00000000
_cell_angle_gamma   90.00000000
_symmetry_Int_Tables_number   1
_chemical_formula_structural   Ba2Cu(BO3)2
_chemical_formula_sum   'Ba16 Cu8 B16 O48'
_cell_volume   1326.34090734
_cell_formula_units_Z   8
loop_
 _symmetry_equiv_pos_site_id
 _symmetry_equiv_pos_as_xyz
  1  'x, y, z'
loop_
 _atom_site_type_symbol
 _atom_site_label
 _atom_site_symmetry_multiplicity
 _atom_site_fract_x
 _atom_site_fract_y
 _atom_site_fract_z
 _atom_site_occupancy
  Ba  Ba0  1  0.34053596  0.98145062  0.21743672  1
  Ba  Ba1  1  0.34053596  0.51854938  0.21743672  1
  Ba  Ba2  1  0.84053596  0.98145062  0.28256328  1
  Ba  Ba3  1  0.50000000  0.00000000  0.50000000  1
  Ba  Ba4  1  0.84053596  0.51854938  0.28256328  1
  Ba  Ba5  1  0.65946404  0.48145062  0.78256328  1
  Ba  Ba6  1  0.00000000  0.00000000  0.00000000  1
  Ba  Ba7  1  0.15946404  0.01854938  0.71743672  1
  Ba  Ba8  1  0.00000000  0.50000000  0.00000000  1
  Ba  Ba9  1  0.15946404  0.48145062  0.71743672  1
  Ba  Ba10  1  0.61630680  0.75000000  0.04617043  1
  Ba  Ba11  1  0.11630680  0.75000000  0.45382957  1
  Ba  Ba12  1  0.38369320  0.25000000  0.95382957  1
  Ba  Ba13  1  0.65946404  0.01854938  0.78256328  1
  Ba  Ba14  1  0.88369320  0.25000000  0.54617043  1
  Ba  Ba15  1  0.50000000  0.50000000  0.50000000  1
  Cu  Cu16  1  0.80003679  0.25000000  0.92705556  1
  Cu  Cu17  1  0.69996321  0.75000000  0.42705556  1
  Cu  Cu18  1  0.45673189  0.75000000  0.80092579  1
  Cu  Cu19  1  0.19996321  0.75000000  0.07294444  1
  Cu  Cu20  1  0.95673189  0.75000000  0.69907421  1
  Cu  Cu21  1  0.04326811  0.25000000  0.30092579  1
  Cu  Cu22  1  0.30003679  0.25000000  0.57294444  1
  Cu  Cu23  1  0.54326811  0.25000000  0.19907421  1
  B  B24  1  0.02019216  0.75000000  0.20642584  1
  B  B25  1  0.86164747  0.57015512  0.56465845  1
  B  B26  1  0.63835253  0.07015512  0.06465845  1
  B  B27  1  0.63835253  0.42984488  0.06465845  1
  B  B28  1  0.97980784  0.25000000  0.79357416  1
  B  B29  1  0.36164747  0.92984488  0.93534155  1
  B  B30  1  0.36164747  0.57015512  0.93534155  1
  B  B31  1  0.42778480  0.75000000  0.63231642  1
  B  B32  1  0.86164747  0.92984488  0.56465845  1
  B  B33  1  0.47980784  0.25000000  0.70642584  1
  B  B34  1  0.13835253  0.07015512  0.43534155  1
  B  B35  1  0.52019216  0.75000000  0.29357416  1
  B  B36  1  0.92778480  0.75000000  0.86768358  1
  B  B37  1  0.13835253  0.42984488  0.43534155  1
  B  B38  1  0.57221520  0.25000000  0.36768358  1
  B  B39  1  0.07221520  0.25000000  0.13231642  1
  O  O40  1  0.80418995  0.60803731  0.47640405  1
  O  O41  1  0.58523428  0.25000000  0.46281466  1
  O  O42  1  0.93504074  0.64562651  0.81218657  1
  O  O43  1  0.56495926  0.14562651  0.31218657  1
  O  O44  1  0.43517194  0.75000000  0.21148217  1
  O  O45  1  0.20714380  0.97340882  0.39257817  1
  O  O46  1  1.00580737  0.37162642  0.39539344  1
  O  O47  1  0.79285620  0.47340882  0.60742183  1
  O  O48  1  0.79285620  0.02659118  0.60742183  1
  O  O49  1  0.06495926  0.35437349  0.18781343  1
  O  O50  1  0.41476572  0.75000000  0.53718534  1
  O  O51  1  0.56837146  0.64549055  0.33891409  1
  O  O52  1  0.30418995  0.89196269  0.02359595  1
  O  O53  1  0.80418995  0.89196269  0.47640405  1
  O  O54  1  0.06482806  0.25000000  0.71148217  1
  O  O55  1  0.06837146  0.64549055  0.16108591  1
  O  O56  1  0.30418995  0.60803731  0.02359595  1
  O  O57  1  0.93162854  0.14549055  0.83891409  1
  O  O58  1  0.19581005  0.10803731  0.52359595  1
  O  O59  1  0.43504074  0.85437349  0.68781343  1
  O  O60  1  0.56495926  0.35437349  0.31218657  1
  O  O61  1  0.93517194  0.75000000  0.28851783  1
  O  O62  1  0.08523428  0.25000000  0.03718534  1
  O  O63  1  0.20714380  0.52659118  0.39257817  1
  O  O64  1  1.00580737  0.12837358  0.39539344  1
  O  O65  1  0.69581005  0.39196269  0.97640405  1
  O  O66  1  0.43162854  0.35450945  0.66108591  1
  O  O67  1  0.43162854  0.14549055  0.66108591  1
  O  O68  1  0.29285620  0.47340882  0.89257817  1
  O  O69  1  0.50580737  0.37162642  0.10460656  1
  O  O70  1  0.93162854  0.35450945  0.83891409  1
  O  O71  1  0.56482806  0.25000000  0.78851783  1
  O  O72  1  0.49419263  0.62837358  0.89539344  1
  O  O73  1  0.70714380  0.52659118  0.10742183  1
  O  O74  1  -0.00580737  0.62837358  0.60460656  1
  O  O75  1  0.70714380  0.97340882  0.10742183  1
  O  O76  1  0.29285620  0.02659118  0.89257817  1
  O  O77  1  0.69581005  0.10803731  0.97640405  1
  O  O78  1  0.56837146  0.85450945  0.33891409  1
  O  O79  1  0.50580737  0.12837358  0.10460656  1
  O  O80  1  0.93504074  0.85437349  0.81218657  1
  O  O81  1  -0.00580737  0.87162642  0.60460656  1
  O  O82  1  0.49419263  0.87162642  0.89539344  1
  O  O83  1  0.06837146  0.85450945  0.16108591  1
  O  O84  1  0.06495926  0.14562651  0.18781343  1
  O  O85  1  0.19581005  0.39196269  0.52359595  1
  O  O86  1  0.91476572  0.75000000  0.96281466  1
  O  O87  1  0.43504074  0.64562651  0.68781343  1
