# generated using pymatgen
data_Rb2Mo3O10
_symmetry_space_group_name_H-M   'P 1'
_cell_length_a   8.37565712
_cell_length_b   8.40982904
_cell_length_c   9.36844438
_cell_angle_alpha   96.85448536
_cell_angle_beta   90.00000000
_cell_angle_gamma   119.86567285
_symmetry_Int_Tables_number   1
_chemical_formula_structural   Rb2Mo3O10
_chemical_formula_sum   'Rb4 Mo6 O20'
_cell_volume   566.81070318
_cell_formula_units_Z   2
loop_
 _symmetry_equiv_pos_site_id
 _symmetry_equiv_pos_as_xyz
  1  'x, y, z'
loop_
 _atom_site_type_symbol
 _atom_site_label
 _atom_site_symmetry_multiplicity
 _atom_site_fract_x
 _atom_site_fract_y
 _atom_site_fract_z
 _atom_site_occupancy
  Rb  Rb0  1  0.76964929  0.36297186  0.15884611  1
  Rb  Rb1  1  0.40667844  0.63702814  0.34115389  1
  Rb  Rb2  1  0.23035071  0.63702814  0.84115389  1
  Rb  Rb3  1  0.59332156  0.36297186  0.65884611  1
  Mo  Mo4  1  0.96639781  0.78807569  0.47841938  1
  Mo  Mo5  1  0.17832213  0.21192431  0.02158062  1
  Mo  Mo6  1  0.03360219  0.21192431  0.52158062  1
  Mo  Mo7  1  0.82167787  0.78807569  0.97841938  1
  Mo  Mo8  1  0.28552004  1.00000000  0.25000000  1
  Mo  Mo9  1  0.71447996  0.00000000  0.75000000  1
  O  O10  1  0.10838974  0.76465435  0.32096925  1
  O  O11  1  0.34373439  0.23534565  0.17903075  1
  O  O12  1  0.89161026  0.23534565  0.67903075  1
  O  O13  1  0.65626561  0.76465435  0.82096925  1
  O  O14  1  0.89459951  0.95082485  0.59266139  1
  O  O15  1  0.94377566  0.04917515  0.90733861  1
  O  O16  1  0.10540049  0.04917515  0.40733861  1
  O  O17  1  0.05622434  0.95082485  0.09266139  1
  O  O18  1  0.05023594  0.72238411  0.61662187  1
  O  O19  1  0.32785183  0.27761589  0.88337813  1
  O  O20  1  0.94976406  0.27761589  0.38337813  1
  O  O21  1  0.67214817  0.72238411  0.11662187  1
  O  O22  1  0.74508181  0.60259100  0.41972027  1
  O  O23  1  0.14249081  0.39740900  0.08027973  1
  O  O24  1  0.25491819  0.39740900  0.58027973  1
  O  O25  1  0.85750919  0.60259100  0.91972027  1
  O  O26  1  0.36388263  0.89563678  0.11794099  1
  O  O27  1  0.46824585  0.10436322  0.38205901  1
  O  O28  1  0.63611737  0.10436322  0.88205901  1
  O  O29  1  0.53175415  0.89563678  0.61794099  1
