# generated using pymatgen
data_Ba3Ho2(PS4)4
_symmetry_space_group_name_H-M   'P 1'
_cell_length_a   10.41221307
_cell_length_b   12.74290688
_cell_length_c   19.43586901
_cell_angle_alpha   90.00000000
_cell_angle_beta   90.00000000
_cell_angle_gamma   90.00000000
_symmetry_Int_Tables_number   1
_chemical_formula_structural   Ba3Ho2(PS4)4
_chemical_formula_sum   'Ba12 Ho8 P16 S64'
_cell_volume   2578.78728139
_cell_formula_units_Z   4
loop_
 _symmetry_equiv_pos_site_id
 _symmetry_equiv_pos_as_xyz
  1  'x, y, z'
loop_
 _atom_site_type_symbol
 _atom_site_label
 _atom_site_symmetry_multiplicity
 _atom_site_fract_x
 _atom_site_fract_y
 _atom_site_fract_z
 _atom_site_occupancy
  Ba  Ba0  1  0.78981612  0.10806613  0.22705378  1
  Ba  Ba1  1  0.11673171  0.25000000  0.00000000  1
  Ba  Ba2  1  0.71018388  0.89193387  0.72705378  1
  Ba  Ba3  1  0.88326829  0.75000000  0.00000000  1
  Ba  Ba4  1  0.38326829  0.75000000  0.50000000  1
  Ba  Ba5  1  0.28981612  0.39193387  0.72705378  1
  Ba  Ba6  1  0.21018388  0.89193387  0.77294622  1
  Ba  Ba7  1  0.78981612  0.39193387  0.77294622  1
  Ba  Ba8  1  0.71018388  0.60806613  0.27294622  1
  Ba  Ba9  1  0.28981612  0.10806613  0.27294622  1
  Ba  Ba10  1  0.21018388  0.60806613  0.22705378  1
  Ba  Ba11  1  0.61673171  0.25000000  0.50000000  1
  Ho  Ho12  1  0.62838817  0.38736061  0.07333550  1
  Ho  Ho13  1  0.62838817  0.11263939  0.92666450  1
  Ho  Ho14  1  0.37161183  0.61263939  0.92666450  1
  Ho  Ho15  1  0.87161183  0.88736061  0.42666450  1
  Ho  Ho16  1  0.37161183  0.88736061  0.07333550  1
  Ho  Ho17  1  0.87161183  0.61263939  0.57333550  1
  Ho  Ho18  1  0.12838817  0.38736061  0.42666450  1
  Ho  Ho19  1  0.12838817  0.11263939  0.57333550  1
  P  P20  1  0.49565320  0.36010704  0.89812225  1
  P  P21  1  0.93623917  0.45142761  0.13096012  1
  P  P22  1  0.43623917  0.45142761  0.36903988  1
  P  P23  1  0.93623917  0.04857239  0.86903988  1
  P  P24  1  0.06376083  0.54857239  0.86903988  1
  P  P25  1  0.56376083  0.95142761  0.36903988  1
  P  P26  1  0.50434680  0.86010704  0.89812225  1
  P  P27  1  0.49565320  0.13989296  0.10187775  1
  P  P28  1  0.00434680  0.86010704  0.60187775  1
  P  P29  1  0.56376083  0.54857239  0.63096012  1
  P  P30  1  0.99565320  0.36010704  0.60187775  1
  P  P31  1  0.99565320  0.13989296  0.39812225  1
  P  P32  1  0.00434680  0.63989296  0.39812225  1
  P  P33  1  0.50434680  0.63989296  0.10187775  1
  P  P34  1  0.06376083  0.95142761  0.13096012  1
  P  P35  1  0.43623917  0.04857239  0.63096012  1
  S  S36  1  0.00423442  0.48585975  0.66652933  1
  S  S37  1  0.12112159  0.58532975  0.96748407  1
  S  S38  1  0.93004632  0.61215205  0.14718615  1
  S  S39  1  0.70985752  0.61377808  0.69085443  1
  S  S40  1  0.88614831  0.89402649  0.14964216  1
  S  S41  1  0.43577947  0.27021568  0.15078121  1
  S  S42  1  0.93004632  0.88784795  0.85281385  1
  S  S43  1  0.11154799  0.59834853  0.48348841  1
  S  S44  1  0.67935362  0.16993395  0.06775182  1
  S  S45  1  0.62112159  0.91467025  0.46748407  1
  S  S46  1  0.49576558  0.98585975  0.83347067  1
  S  S47  1  0.06995368  0.11215205  0.14718615  1
  S  S48  1  0.11385169  0.10597351  0.85035784  1
  S  S49  1  0.87887841  0.41467025  0.03251593  1
  S  S50  1  0.06422053  0.77021568  0.34921879  1
  S  S51  1  0.32064638  0.83006605  0.93224818  1
  S  S52  1  0.56422053  0.77021568  0.15078121  1
  S  S53  1  0.29014248  0.38622192  0.30914557  1
  S  S54  1  0.50423442  0.01414025  0.16652933  1
  S  S55  1  0.37887841  0.41467025  0.46748407  1
  S  S56  1  0.17935362  0.16993395  0.43224818  1
  S  S57  1  0.43004632  0.88784795  0.64718615  1
  S  S58  1  0.82064638  0.66993395  0.43224818  1
  S  S59  1  0.43004632  0.61215205  0.35281385  1
  S  S60  1  0.67935362  0.33006605  0.93224818  1
  S  S61  1  0.38845201  0.40165147  0.98348841  1
  S  S62  1  0.79014248  0.11377808  0.80914557  1
  S  S63  1  0.38614831  0.89402649  0.35035784  1
  S  S64  1  0.88845201  0.09834853  0.48348841  1
  S  S65  1  0.06422053  0.72978432  0.65078121  1
  S  S66  1  0.43577947  0.22978432  0.84921879  1
  S  S67  1  0.38845201  0.09834853  0.01651159  1
  S  S68  1  0.93577947  0.27021568  0.34921879  1
  S  S69  1  0.29014248  0.11377808  0.69085443  1
  S  S70  1  0.17935362  0.33006605  0.56775182  1
  S  S71  1  0.00423442  0.01414025  0.33347067  1
  S  S72  1  0.38614831  0.60597351  0.64964216  1
  S  S73  1  0.93577947  0.22978432  0.65078121  1
  S  S74  1  0.99576558  0.51414025  0.33347067  1
  S  S75  1  0.56995368  0.11215205  0.35281385  1
  S  S76  1  0.56422053  0.72978432  0.84921879  1
  S  S77  1  0.82064638  0.83006605  0.56775182  1
  S  S78  1  0.11154799  0.90165147  0.51651159  1
  S  S79  1  0.62112159  0.58532975  0.53251593  1
  S  S80  1  0.12112159  0.91467025  0.03251593  1
  S  S81  1  0.79014248  0.38622192  0.19085443  1
  S  S82  1  0.49576558  0.51414025  0.16652933  1
  S  S83  1  0.37887841  0.08532975  0.53251593  1
  S  S84  1  0.88845201  0.40165147  0.51651159  1
  S  S85  1  0.88614831  0.60597351  0.85035784  1
  S  S86  1  0.20985752  0.88622192  0.19085443  1
  S  S87  1  0.61385169  0.10597351  0.64964216  1
  S  S88  1  0.70985752  0.88622192  0.30914557  1
  S  S89  1  0.20985752  0.61377808  0.80914557  1
  S  S90  1  0.61385169  0.39402649  0.35035784  1
  S  S91  1  0.56995368  0.38784795  0.64718615  1
  S  S92  1  0.50423442  0.48585975  0.83347067  1
  S  S93  1  0.06995368  0.38784795  0.85281385  1
  S  S94  1  0.61154799  0.90165147  0.98348841  1
  S  S95  1  0.32064638  0.66993395  0.06775182  1
  S  S96  1  0.99576558  0.98585975  0.66652933  1
  S  S97  1  0.11385169  0.39402649  0.14964216  1
  S  S98  1  0.87887841  0.08532975  0.96748407  1
  S  S99  1  0.61154799  0.59834853  0.01651159  1
