# generated using pymatgen
data_P2IrClF6
_symmetry_space_group_name_H-M   'P 1'
_cell_length_a   10.45357360
_cell_length_b   10.73877441
_cell_length_c   13.39268466
_cell_angle_alpha   101.19362305
_cell_angle_beta   90.00000000
_cell_angle_gamma   90.00000000
_symmetry_Int_Tables_number   1
_chemical_formula_structural   P2IrClF6
_chemical_formula_sum   'P16 Ir8 Cl8 F48'
_cell_volume   1474.84325246
_cell_formula_units_Z   8
loop_
 _symmetry_equiv_pos_site_id
 _symmetry_equiv_pos_as_xyz
  1  'x, y, z'
loop_
 _atom_site_type_symbol
 _atom_site_label
 _atom_site_symmetry_multiplicity
 _atom_site_fract_x
 _atom_site_fract_y
 _atom_site_fract_z
 _atom_site_occupancy
  P  P0  1  0.09851812  0.01199214  0.75998377  1
  P  P1  1  0.36118162  0.98662436  0.25627385  1
  P  P2  1  0.40148188  0.51199214  0.25998377  1
  P  P3  1  0.10260514  0.80636181  0.55450938  1
  P  P4  1  0.90148188  0.98800786  0.24001623  1
  P  P5  1  0.59851812  0.48800786  0.74001623  1
  P  P6  1  0.35886351  0.20178035  0.45293131  1
  P  P7  1  0.60260514  0.69363819  0.94549062  1
  P  P8  1  0.13881838  0.48662436  0.75627385  1
  P  P9  1  0.39739486  0.30636181  0.05450938  1
  P  P10  1  0.63881838  0.01337564  0.74372615  1
  P  P11  1  0.14113649  0.70178035  0.95293131  1
  P  P12  1  0.64113649  0.79821965  0.54706869  1
  P  P13  1  0.89739486  0.19363819  0.44549062  1
  P  P14  1  0.85886351  0.29821965  0.04706869  1
  P  P15  1  0.86118162  0.51337564  0.24372615  1
  Ir  Ir16  1  0.72757335  0.83051969  0.69580260  1
  Ir  Ir17  1  0.98900615  0.16910309  0.29881907  1
  Ir  Ir18  1  0.48900615  0.33089691  0.20118093  1
  Ir  Ir19  1  0.77242665  0.33051969  0.19580260  1
  Ir  Ir20  1  0.27242665  0.16948031  0.30419740  1
  Ir  Ir21  1  0.22757335  0.66948031  0.80419740  1
  Ir  Ir22  1  0.51099385  0.66910309  0.79881907  1
  Ir  Ir23  1  0.01099385  0.83089691  0.70118093  1
  Cl  Cl24  1  0.63502746  0.35957450  0.34447333  1
  Cl  Cl25  1  0.36497254  0.64042550  0.65552667  1
  Cl  Cl26  1  0.62872651  0.15136622  0.14369240  1
  Cl  Cl27  1  0.86497254  0.85957450  0.84447333  1
  Cl  Cl28  1  0.13502746  0.14042550  0.15552667  1
  Cl  Cl29  1  0.37127349  0.84863378  0.85630760  1
  Cl  Cl30  1  0.87127349  0.65136622  0.64369240  1
  Cl  Cl31  1  0.12872651  0.34863378  0.35630760  1
  F  F32  1  0.61055232  0.65741874  0.49409334  1
  F  F33  1  0.11871711  0.43611002  0.63889698  1
  F  F34  1  0.23558507  0.86764398  0.53858445  1
  F  F35  1  0.22216770  0.66455509  0.04191410  1
  F  F36  1  0.28723039  0.86789462  0.28060325  1
  F  F37  1  0.00375791  0.45474399  0.79600761  1
  F  F38  1  0.27783230  0.16455509  0.54191410  1
  F  F39  1  0.61871711  0.06388998  0.86110302  1
  F  F40  1  0.47278957  0.35516753  0.96752749  1
  F  F41  1  0.51671271  0.36608546  0.74535066  1
  F  F42  1  0.88128289  0.56388998  0.36110302  1
  F  F43  1  0.22697062  0.05425781  0.71624809  1
  F  F44  1  0.71276961  0.13210538  0.71939675  1
  F  F45  1  0.02721043  0.85516753  0.46752749  1
  F  F46  1  0.37177623  0.16719768  0.99503341  1
  F  F47  1  0.36933108  0.54575659  0.37692772  1
  F  F48  1  0.88944768  0.15741874  0.99409334  1
  F  F49  1  0.51179024  0.86249666  0.52544376  1
  F  F50  1  0.78723039  0.63210538  0.21939675  1
  F  F51  1  0.62822377  0.83280232  0.00496659  1
  F  F52  1  0.99624209  0.54525601  0.20399239  1
  F  F53  1  0.01671271  0.13391454  0.75464934  1
  F  F54  1  0.86933108  0.95424341  0.12307228  1
  F  F55  1  0.77783230  0.33544491  0.95808590  1
  F  F56  1  0.72216770  0.83544491  0.45808590  1
  F  F57  1  0.49624209  0.95474399  0.29600761  1
  F  F58  1  0.63066892  0.45424341  0.62307228  1
  F  F59  1  0.38128289  0.93611002  0.13889698  1
  F  F60  1  0.73558507  0.63235602  0.96141555  1
  F  F61  1  0.97278957  0.14483247  0.53247251  1
  F  F62  1  0.48820976  0.13750334  0.47455624  1
  F  F63  1  0.21276961  0.36789462  0.78060325  1
  F  F64  1  0.13066892  0.04575659  0.87692772  1
  F  F65  1  0.76441493  0.13235602  0.46141555  1
  F  F66  1  0.38944768  0.34258126  0.50590666  1
  F  F67  1  0.27302938  0.55425781  0.21624809  1
  F  F68  1  0.87177623  0.33280232  0.50496659  1
  F  F69  1  0.01179024  0.63750334  0.97455624  1
  F  F70  1  0.26441493  0.36764398  0.03858445  1
  F  F71  1  0.72697062  0.44574219  0.78375191  1
  F  F72  1  0.52721043  0.64483247  0.03247251  1
  F  F73  1  0.50375791  0.04525601  0.70399239  1
  F  F74  1  0.11055232  0.84258126  0.00590666  1
  F  F75  1  0.12822377  0.66719768  0.49503341  1
  F  F76  1  0.98328729  0.86608546  0.24535066  1
  F  F77  1  0.77302938  0.94574219  0.28375191  1
  F  F78  1  0.98820976  0.36249666  0.02544376  1
  F  F79  1  0.48328729  0.63391454  0.25464934  1
