# generated using pymatgen
data_BaBiBO4
_symmetry_space_group_name_H-M   'P 1'
_cell_length_a   5.20234826
_cell_length_b   8.81672541
_cell_length_c   9.86375418
_cell_angle_alpha   90.00000000
_cell_angle_beta   90.00000000
_cell_angle_gamma   90.00000000
_symmetry_Int_Tables_number   1
_chemical_formula_structural   BaBiBO4
_chemical_formula_sum   'Ba4 Bi4 B4 O16'
_cell_volume   452.42748181
_cell_formula_units_Z   4
loop_
 _symmetry_equiv_pos_site_id
 _symmetry_equiv_pos_as_xyz
  1  'x, y, z'
loop_
 _atom_site_type_symbol
 _atom_site_label
 _atom_site_symmetry_multiplicity
 _atom_site_fract_x
 _atom_site_fract_y
 _atom_site_fract_z
 _atom_site_occupancy
  Ba  Ba0  1  0.74779377  0.00838017  0.18303767  1
  Ba  Ba1  1  0.24779377  0.49161983  0.68303767  1
  Ba  Ba2  1  0.24779377  0.99161983  0.81696233  1
  Ba  Ba3  1  0.74779377  0.50838017  0.31696233  1
  Bi  Bi4  1  0.24798554  0.30490855  0.06127615  1
  Bi  Bi5  1  0.74798554  0.69509145  0.93872385  1
  Bi  Bi6  1  0.74798554  0.19509145  0.56127615  1
  Bi  Bi7  1  0.24798554  0.80490855  0.43872385  1
  B  B8  1  0.25001706  0.19993275  0.44385484  1
  B  B9  1  0.75001706  0.80006725  0.55614516  1
  B  B10  1  0.75001706  0.30006725  0.94385484  1
  B  B11  1  0.25001706  0.69993275  0.05614516  1
  O  O12  1  0.48432341  0.70635845  0.12273998  1
  O  O13  1  0.75225494  0.81189738  0.41459179  1
  O  O14  1  0.51503693  0.79520404  0.62176575  1
  O  O15  1  0.01503693  0.70479596  0.12176575  1
  O  O16  1  0.98432341  0.79364155  0.62273998  1
  O  O17  1  0.24858835  0.57456147  0.41612687  1
  O  O18  1  0.25225494  0.68810262  0.91459179  1
  O  O19  1  0.25225494  0.18810262  0.58540821  1
  O  O20  1  0.51503693  0.29520404  0.87823425  1
  O  O21  1  0.01503693  0.20479596  0.37823425  1
  O  O22  1  0.24858835  0.07456147  0.08387313  1
  O  O23  1  0.74858835  0.92543853  0.91612687  1
  O  O24  1  0.48432341  0.20635845  0.37726002  1
  O  O25  1  0.74858835  0.42543853  0.58387313  1
  O  O26  1  0.98432341  0.29364155  0.87726002  1
  O  O27  1  0.75225494  0.31189738  0.08540821  1
