# generated using pymatgen
data_CsLa(PO3)4
_symmetry_space_group_name_H-M   'P 1'
_cell_length_a   7.32161899
_cell_length_b   8.96746470
_cell_length_c   9.39531093
_cell_angle_alpha   90.00000000
_cell_angle_beta   90.00000000
_cell_angle_gamma   99.28648032
_symmetry_Int_Tables_number   1
_chemical_formula_structural   CsLa(PO3)4
_chemical_formula_sum   'Cs2 La2 P8 O24'
_cell_volume   608.77721265
_cell_formula_units_Z   2
loop_
 _symmetry_equiv_pos_site_id
 _symmetry_equiv_pos_as_xyz
  1  'x, y, z'
loop_
 _atom_site_type_symbol
 _atom_site_label
 _atom_site_symmetry_multiplicity
 _atom_site_fract_x
 _atom_site_fract_y
 _atom_site_fract_z
 _atom_site_occupancy
  Cs  Cs0  1  0.32669612  0.82530690  0.43370987  1
  Cs  Cs1  1  0.67330388  0.17469310  0.93370987  1
  La  La2  1  0.20209343  0.30268694  0.59907224  1
  La  La3  1  0.79790657  0.69731306  0.09907224  1
  P  P4  1  0.64555977  0.54356282  0.47405173  1
  P  P5  1  0.69435976  0.22778674  0.52367648  1
  P  P6  1  0.06022121  0.37461120  0.20734531  1
  P  P7  1  0.91731612  0.07272689  0.32250964  1
  P  P8  1  0.35444023  0.45643718  0.97405173  1
  P  P9  1  0.93977879  0.62538880  0.70734531  1
  P  P10  1  0.08268388  0.92727311  0.82250964  1
  P  P11  1  0.30564024  0.77221326  0.02367648  1
  O  O12  1  0.07691003  0.53225318  0.65226406  1
  O  O13  1  0.04112707  0.80114598  0.69818158  1
  O  O14  1  0.49499175  0.18268869  0.56629372  1
  O  O15  1  0.72396538  0.38886440  0.44128001  1
  O  O16  1  0.45985392  0.50956590  0.54476226  1
  O  O17  1  0.92308997  0.46774682  0.15226406  1
  O  O18  1  0.66252664  0.63479437  0.33993134  1
  O  O19  1  0.85242876  0.59365225  0.85051734  1
  O  O20  1  0.85719983  0.92557580  0.24992205  1
  O  O21  1  0.21328209  0.36440728  0.08656853  1
  O  O22  1  0.50500825  0.81731131  0.06629372  1
  O  O23  1  0.95887293  0.19885402  0.19818158  1
  O  O24  1  0.78671791  0.63559272  0.58656853  1
  O  O25  1  0.27603462  0.61113560  0.94128001  1
  O  O26  1  0.15655273  0.76761518  0.13403006  1
  O  O27  1  0.92638818  0.91020559  0.92786439  1
  O  O28  1  0.14280017  0.07442420  0.74992205  1
  O  O29  1  0.14757124  0.40634775  0.35051734  1
  O  O30  1  0.84344727  0.23238482  0.63403006  1
  O  O31  1  0.07361182  0.08979441  0.42786439  1
  O  O32  1  0.54014608  0.49043410  0.04476226  1
  O  O33  1  0.33747336  0.36520563  0.83993134  1
  O  O34  1  0.27076925  0.88342284  0.89445939  1
  O  O35  1  0.72923075  0.11657716  0.39445939  1
