# generated using pymatgen
data_RbGeBiS4
_symmetry_space_group_name_H-M   'P 1'
_cell_length_a   6.71937032
_cell_length_b   6.95945650
_cell_length_c   17.40393207
_cell_angle_alpha   90.00000000
_cell_angle_beta   93.30972873
_cell_angle_gamma   90.00000000
_symmetry_Int_Tables_number   1
_chemical_formula_structural   RbGeBiS4
_chemical_formula_sum   'Rb4 Ge4 Bi4 S16'
_cell_volume   812.50545347
_cell_formula_units_Z   4
loop_
 _symmetry_equiv_pos_site_id
 _symmetry_equiv_pos_as_xyz
  1  'x, y, z'
loop_
 _atom_site_type_symbol
 _atom_site_label
 _atom_site_symmetry_multiplicity
 _atom_site_fract_x
 _atom_site_fract_y
 _atom_site_fract_z
 _atom_site_occupancy
  Rb  Rb0  1  0.24793543  0.75694585  0.53490267  1
  Rb  Rb1  1  0.25206457  0.25694585  0.96509733  1
  Rb  Rb2  1  0.75206457  0.24305415  0.46509733  1
  Rb  Rb3  1  0.74793543  0.74305415  0.03490267  1
  Ge  Ge4  1  0.45391400  0.22965196  0.65897893  1
  Ge  Ge5  1  0.04608600  0.72965196  0.84102107  1
  Ge  Ge6  1  0.54608600  0.77034804  0.34102107  1
  Ge  Ge7  1  0.95391400  0.27034804  0.15897893  1
  Bi  Bi8  1  0.53963411  0.81118044  0.77817896  1
  Bi  Bi9  1  0.03963411  0.68881956  0.27817896  1
  Bi  Bi10  1  0.96036589  0.31118044  0.72182104  1
  Bi  Bi11  1  0.46036589  0.18881956  0.22182104  1
  S  S12  1  0.14800124  0.51660052  0.13437231  1
  S  S13  1  0.32907805  0.76102163  0.91254469  1
  S  S14  1  0.14534807  0.01032191  0.14646996  1
  S  S15  1  0.64534807  0.48967809  0.64646996  1
  S  S16  1  0.85465193  0.98967809  0.85353004  1
  S  S17  1  0.87109124  0.33065617  0.28087523  1
  S  S18  1  0.67092195  0.23897837  0.08745531  1
  S  S19  1  0.64800124  0.98339948  0.63437231  1
  S  S20  1  0.17092195  0.26102163  0.58745531  1
  S  S21  1  0.35199876  0.01660052  0.36562769  1
  S  S22  1  0.82907805  0.73897837  0.41254469  1
  S  S23  1  0.12890876  0.66934383  0.71912477  1
  S  S24  1  0.35465193  0.51032191  0.35353004  1
  S  S25  1  0.62890876  0.83065617  0.21912477  1
  S  S26  1  0.37109124  0.16934383  0.78087523  1
  S  S27  1  0.85199876  0.48339948  0.86562769  1
