# generated using pymatgen
data_GdH6C4NO9
_symmetry_space_group_name_H-M   'P 1'
_cell_length_a   6.15088059
_cell_length_b   7.95256049
_cell_length_c   9.54488336
_cell_angle_alpha   90.40774015
_cell_angle_beta   90.00000000
_cell_angle_gamma   90.00000000
_symmetry_Int_Tables_number   1
_chemical_formula_structural   GdH6C4NO9
_chemical_formula_sum   'Gd2 H12 C8 N2 O18'
_cell_volume   466.87853324
_cell_formula_units_Z   2
loop_
 _symmetry_equiv_pos_site_id
 _symmetry_equiv_pos_as_xyz
  1  'x, y, z'
loop_
 _atom_site_type_symbol
 _atom_site_label
 _atom_site_symmetry_multiplicity
 _atom_site_fract_x
 _atom_site_fract_y
 _atom_site_fract_z
 _atom_site_occupancy
  Gd  Gd0  1  0.39631964  0.25000000  0.75000000  1
  Gd  Gd1  1  0.60368036  0.75000000  0.25000000  1
  H  H2  1  0.08029134  0.66210979  0.69744584  1
  H  H3  1  0.91472437  0.22530084  0.83027238  1
  H  H4  1  0.11455562  0.31179619  0.17851396  1
  H  H5  1  0.91472437  0.27469916  0.66972762  1
  H  H6  1  0.08029134  0.83789021  0.80255416  1
  H  H7  1  0.08527563  0.77469916  0.16972762  1
  H  H8  1  0.88544438  0.81179619  0.67851396  1
  H  H9  1  0.08527563  0.72530084  0.33027238  1
  H  H10  1  0.91970866  0.16210979  0.19744584  1
  H  H11  1  0.91970866  0.33789021  0.30255416  1
  H  H12  1  0.11455562  0.18820381  0.32148604  1
  H  H13  1  0.88544438  0.68820381  0.82148604  1
  C  C14  1  0.59557815  0.53712410  0.95749344  1
  C  C15  1  0.59557815  0.96287590  0.54250656  1
  C  C16  1  0.38961765  0.95369781  0.98680247  1
  C  C17  1  0.61038235  0.04630219  0.01319753  1
  C  C18  1  0.61038235  0.45369781  0.48680247  1
  C  C19  1  0.38961765  0.54630219  0.51319753  1
  C  C20  1  0.40442185  0.03712410  0.45749344  1
  C  C21  1  0.40442185  0.46287590  0.04250656  1
  N  N22  1  0.98349510  0.75000000  0.75000000  1
  N  N23  1  0.01650490  0.25000000  0.25000000  1
  O  O24  1  0.61116198  0.49347493  0.83022859  1
  O  O25  1  0.27715041  0.00009989  0.88269405  1
  O  O26  1  0.66090387  0.16239903  0.92922551  1
  O  O27  1  0.72284959  0.99990011  0.11730595  1
  O  O28  1  0.72333631  0.63759656  0.02055379  1
  O  O29  1  0.38883802  0.99347493  0.33022859  1
  O  O30  1  0.27666369  0.13759656  0.52055379  1
  O  O31  1  0.33909613  0.83760097  0.07077449  1
  O  O32  1  0.33909613  0.66239903  0.42922551  1
  O  O33  1  0.27666369  0.36240344  0.97944621  1
  O  O34  1  0.72284959  0.50009989  0.38269405  1
  O  O35  1  0.66090387  0.33760097  0.57077449  1
  O  O36  1  0.61116198  0.00652507  0.66977141  1
  O  O37  1  0.27715041  0.49990011  0.61730595  1
  O  O38  1  0.00957590  0.25000000  0.75000000  1
  O  O39  1  0.99042410  0.75000000  0.25000000  1
  O  O40  1  0.38883802  0.50652507  0.16977141  1
  O  O41  1  0.72333631  0.86240344  0.47944621  1
