# generated using pymatgen
data_Nd2Ta2Cl2O7
_symmetry_space_group_name_H-M   'P 1'
_cell_length_a   3.95485101
_cell_length_b   6.95337190
_cell_length_c   8.02760528
_cell_angle_alpha   113.03552307
_cell_angle_beta   104.25850771
_cell_angle_gamma   89.99940637
_symmetry_Int_Tables_number   1
_chemical_formula_structural   Nd2Ta2Cl2O7
_chemical_formula_sum   'Nd2 Ta2 Cl2 O7'
_cell_volume   195.74215271
_cell_formula_units_Z   1
loop_
 _symmetry_equiv_pos_site_id
 _symmetry_equiv_pos_as_xyz
  1  'x, y, z'
loop_
 _atom_site_type_symbol
 _atom_site_label
 _atom_site_symmetry_multiplicity
 _atom_site_fract_x
 _atom_site_fract_y
 _atom_site_fract_z
 _atom_site_occupancy
  Nd  Nd0  1  0.30743720  0.83555406  0.61510001  1
  Nd  Nd1  1  0.69256280  0.16444594  0.38489999  1
  Ta  Ta2  1  0.96531240  0.20083288  0.93071364  1
  Ta  Ta3  1  0.03468760  0.79916712  0.06928636  1
  Cl  Cl4  1  0.67890230  0.56554029  0.35780579  1
  Cl  Cl5  1  0.32109770  0.43445971  0.64219421  1
  O  O6  1  0.45451787  0.16312499  0.90912821  1
  O  O7  1  0.54548213  0.83687501  0.09087179  1
  O  O8  1  0.91887369  0.84686137  0.83776248  1
  O  O9  1  0.00000000  0.50000000  0.00000000  1
  O  O10  1  0.82524063  0.06901757  0.65056346  1
  O  O11  1  0.08112631  0.15313863  0.16223752  1
  O  O12  1  0.17475937  0.93098243  0.34943654  1
