# generated using pymatgen
data_Ba3Cr2WO9
_symmetry_space_group_name_H-M   'P 1'
_cell_length_a   5.80676625
_cell_length_b   5.80676620
_cell_length_c   14.33350860
_cell_angle_alpha   90.00000000
_cell_angle_beta   90.00000000
_cell_angle_gamma   119.99999453
_symmetry_Int_Tables_number   1
_chemical_formula_structural   Ba3Cr2WO9
_chemical_formula_sum   'Ba6 Cr4 W2 O18'
_cell_volume   418.55434158
_cell_formula_units_Z   2
loop_
 _symmetry_equiv_pos_site_id
 _symmetry_equiv_pos_as_xyz
  1  'x, y, z'
loop_
 _atom_site_type_symbol
 _atom_site_label
 _atom_site_symmetry_multiplicity
 _atom_site_fract_x
 _atom_site_fract_y
 _atom_site_fract_z
 _atom_site_occupancy
  Ba  Ba0  1  0.00000000  0.00000000  0.25000000  1
  Ba  Ba1  1  0.00000000  0.00000000  0.75000000  1
  Ba  Ba2  1  0.33333300  0.66666700  0.10349987  1
  Ba  Ba3  1  0.33333300  0.66666700  0.39650013  1
  Ba  Ba4  1  0.66666700  0.33333300  0.89650013  1
  Ba  Ba5  1  0.66666700  0.33333300  0.60349987  1
  Cr  Cr6  1  0.33333300  0.66666700  0.84145690  1
  Cr  Cr7  1  0.33333300  0.66666700  0.65854310  1
  Cr  Cr8  1  0.66666700  0.33333300  0.15854310  1
  Cr  Cr9  1  0.66666700  0.33333300  0.34145690  1
  W  W10  1  0.00000000  0.00000000  0.00000000  1
  W  W11  1  0.00000000  0.00000000  0.50000000  1
  O  O12  1  0.51519096  0.03285296  0.25000000  1
  O  O13  1  0.51766100  0.48480904  0.25000000  1
  O  O14  1  0.96714704  0.48233900  0.25000000  1
  O  O15  1  0.48233900  0.96714704  0.75000000  1
  O  O16  1  0.48480904  0.51766100  0.75000000  1
  O  O17  1  0.03285296  0.51519096  0.75000000  1
  O  O18  1  0.16040990  0.32007284  0.92183801  1
  O  O19  1  0.15966294  0.83959010  0.57816199  1
  O  O20  1  0.67992716  0.84033706  0.57816199  1
  O  O21  1  0.67992716  0.84033706  0.92183801  1
  O  O22  1  0.15966294  0.83959010  0.92183801  1
  O  O23  1  0.84033706  0.67992716  0.07816199  1
  O  O24  1  0.83959010  0.15966294  0.07816199  1
  O  O25  1  0.32007284  0.16040990  0.07816199  1
  O  O26  1  0.16040990  0.32007284  0.57816199  1
  O  O27  1  0.32007284  0.16040990  0.42183801  1
  O  O28  1  0.84033706  0.67992716  0.42183801  1
  O  O29  1  0.83959010  0.15966294  0.42183801  1
