# generated using pymatgen
data_Na2Te4MoO12
_symmetry_space_group_name_H-M   'P 1'
_cell_length_a   5.94990089
_cell_length_b   9.25685498
_cell_length_c   11.47201957
_cell_angle_alpha   104.39674639
_cell_angle_beta   90.00000000
_cell_angle_gamma   108.74628685
_symmetry_Int_Tables_number   1
_chemical_formula_structural   Na2Te4MoO12
_chemical_formula_sum   'Na4 Te8 Mo2 O24'
_cell_volume   577.33710831
_cell_formula_units_Z   2
loop_
 _symmetry_equiv_pos_site_id
 _symmetry_equiv_pos_as_xyz
  1  'x, y, z'
loop_
 _atom_site_type_symbol
 _atom_site_label
 _atom_site_symmetry_multiplicity
 _atom_site_fract_x
 _atom_site_fract_y
 _atom_site_fract_z
 _atom_site_occupancy
  Na  Na0  1  0.98318759  0.42040976  0.26394822  1
  Na  Na1  1  0.56277784  0.57959024  0.23605178  1
  Na  Na2  1  0.01681241  0.57959024  0.73605178  1
  Na  Na3  1  0.43722216  0.42040976  0.76394822  1
  Te  Te4  1  0.13043027  0.81064659  0.40361273  1
  Te  Te5  1  0.31978369  0.18935341  0.09638727  1
  Te  Te6  1  0.86956973  0.18935341  0.59638727  1
  Te  Te7  1  0.68021631  0.81064659  0.90361273  1
  Te  Te8  1  0.17074664  0.68688392  0.06655104  1
  Te  Te9  1  0.48386372  0.31311608  0.43344896  1
  Te  Te10  1  0.82925336  0.31311608  0.93344896  1
  Te  Te11  1  0.51613628  0.68688392  0.56655104  1
  Mo  Mo12  1  0.66199719  0.00000000  0.25000000  1
  Mo  Mo13  1  0.33800281  0.00000000  0.75000000  1
  O  O14  1  0.71345755  0.22216833  0.33804018  1
  O  O15  1  0.49128922  0.77783167  0.16195982  1
  O  O16  1  0.28654245  0.77783167  0.66195982  1
  O  O17  1  0.50871078  0.22216833  0.83804018  1
  O  O18  1  0.16595319  0.48204819  0.07094050  1
  O  O19  1  0.68390500  0.51795181  0.42905950  1
  O  O20  1  0.83404681  0.51795181  0.92905950  1
  O  O21  1  0.31609500  0.48204819  0.57094050  1
  O  O22  1  0.32644653  0.67528898  0.41065717  1
  O  O23  1  0.65115855  0.32471102  0.08934283  1
  O  O24  1  0.67355347  0.32471102  0.58934283  1
  O  O25  1  0.34884145  0.67528898  0.91065717  1
  O  O26  1  0.99539039  0.68170115  0.24701525  1
  O  O27  1  0.31368824  0.31829885  0.25298475  1
  O  O28  1  0.00461061  0.31829885  0.75298475  1
  O  O29  1  0.68631176  0.68170115  0.74701525  1
  O  O30  1  0.36614058  0.97851644  0.36593702  1
  O  O31  1  0.38762414  0.02148356  0.13406298  1
  O  O32  1  0.63385942  0.02148356  0.63406298  1
  O  O33  1  0.61237586  0.97851644  0.86593702  1
  O  O34  1  0.87204679  0.04684387  0.14373233  1
  O  O35  1  0.82520392  0.95315613  0.35626767  1
  O  O36  1  0.12795321  0.95315613  0.85626767  1
  O  O37  1  0.17479608  0.04684387  0.64373233  1
