# generated using pymatgen
data_Sr3Al2Cl2O5
_symmetry_space_group_name_H-M   'P 1'
_cell_length_a   9.49874227
_cell_length_b   9.51415971
_cell_length_c   9.51885145
_cell_angle_alpha   90.00000000
_cell_angle_beta   90.00000000
_cell_angle_gamma   90.00000000
_symmetry_Int_Tables_number   1
_chemical_formula_structural   Sr3Al2Cl2O5
_chemical_formula_sum   'Sr12 Al8 Cl8 O20'
_cell_volume   860.24288814
_cell_formula_units_Z   4
loop_
 _symmetry_equiv_pos_site_id
 _symmetry_equiv_pos_as_xyz
  1  'x, y, z'
loop_
 _atom_site_type_symbol
 _atom_site_label
 _atom_site_symmetry_multiplicity
 _atom_site_fract_x
 _atom_site_fract_y
 _atom_site_fract_z
 _atom_site_occupancy
  Sr  Sr0  1  0.99203872  0.75148023  0.08888583  1
  Sr  Sr1  1  0.58776559  0.48733129  0.24165344  1
  Sr  Sr2  1  0.75977043  0.91083089  0.49943102  1
  Sr  Sr3  1  0.25977043  0.58916911  0.50056898  1
  Sr  Sr4  1  0.74022957  0.08916911  0.99943102  1
  Sr  Sr5  1  0.24022957  0.41083089  0.00056898  1
  Sr  Sr6  1  0.49203872  0.74851977  0.91111417  1
  Sr  Sr7  1  0.91223441  0.51266871  0.74165344  1
  Sr  Sr8  1  0.50796128  0.24851977  0.58888583  1
  Sr  Sr9  1  0.00796128  0.25148023  0.41111417  1
  Sr  Sr10  1  0.08776559  0.01266871  0.75834656  1
  Sr  Sr11  1  0.41223441  0.98733129  0.25834656  1
  Al  Al12  1  0.59403855  0.40083592  0.90263773  1
  Al  Al13  1  0.39947516  0.09491148  0.90278124  1
  Al  Al14  1  0.60052484  0.59491148  0.59721876  1
  Al  Al15  1  0.40596145  0.90083592  0.59736227  1
  Al  Al16  1  0.10052484  0.90508852  0.40278124  1
  Al  Al17  1  0.89947516  0.40508852  0.09721876  1
  Al  Al18  1  0.90596145  0.59916408  0.40263773  1
  Al  Al19  1  0.09403855  0.09916408  0.09736227  1
  Cl  Cl20  1  0.68239610  0.79752484  0.19785845  1
  Cl  Cl21  1  0.31760390  0.29752484  0.30214155  1
  Cl  Cl22  1  0.29570564  0.68462831  0.18978695  1
  Cl  Cl23  1  0.18239610  0.70247516  0.80214155  1
  Cl  Cl24  1  0.70429436  0.18462831  0.31021305  1
  Cl  Cl25  1  0.79570564  0.81537169  0.81021305  1
  Cl  Cl26  1  0.20429436  0.31537169  0.68978695  1
  Cl  Cl27  1  0.81760390  0.20247516  0.69785845  1
  O  O28  1  0.49420802  0.74211313  0.64424814  1
  O  O29  1  1.00008265  0.01175175  0.51431633  1
  O  O30  1  0.00579198  0.25788687  0.14424814  1
  O  O31  1  0.85488802  0.50344381  0.25046781  1
  O  O32  1  0.73941427  0.35564361  0.01293994  1
  O  O33  1  -0.00008265  0.51175175  0.98568367  1
  O  O34  1  0.50008265  0.48824825  0.48568367  1
  O  O35  1  0.35488802  0.99655619  0.74953219  1
  O  O36  1  0.26058573  0.85564361  0.48706006  1
  O  O37  1  0.99420802  0.75788687  0.35575186  1
  O  O38  1  0.23941427  0.14435639  0.98706006  1
  O  O39  1  0.14511198  0.00344381  0.24953219  1
  O  O40  1  0.51830412  0.00654433  0.49687476  1
  O  O41  1  0.50579198  0.24211313  0.85575186  1
  O  O42  1  0.98169588  0.99345567  0.99687476  1
  O  O43  1  0.48169588  0.50654433  0.00312524  1
  O  O44  1  0.76058573  0.64435639  0.51293994  1
  O  O45  1  0.64511198  0.49655619  0.75046781  1
  O  O46  1  0.49991735  0.98824825  0.01431633  1
  O  O47  1  0.01830412  0.49345567  0.50312524  1
