# generated using pymatgen
data_BaYI5
_symmetry_space_group_name_H-M   'P 1'
_cell_length_a   18.91437898
_cell_length_b   8.61481693
_cell_length_c   8.05757477
_cell_angle_alpha   90.00000000
_cell_angle_beta   90.00000000
_cell_angle_gamma   90.00000000
_symmetry_Int_Tables_number   1
_chemical_formula_structural   BaYI5
_chemical_formula_sum   'Ba4 Y4 I20'
_cell_volume   1312.93275633
_cell_formula_units_Z   4
loop_
 _symmetry_equiv_pos_site_id
 _symmetry_equiv_pos_as_xyz
  1  'x, y, z'
loop_
 _atom_site_type_symbol
 _atom_site_label
 _atom_site_symmetry_multiplicity
 _atom_site_fract_x
 _atom_site_fract_y
 _atom_site_fract_z
 _atom_site_occupancy
  Ba  Ba0  1  0.08361152  0.04270480  0.98294119  1
  Ba  Ba1  1  0.41638848  0.95729520  0.48294119  1
  Ba  Ba2  1  0.58361152  0.45729520  0.01705881  1
  Ba  Ba3  1  0.91638848  0.54270480  0.51705881  1
  Y  Y4  1  0.16490979  0.62308064  0.42203741  1
  Y  Y5  1  0.33509021  0.37691936  0.92203741  1
  Y  Y6  1  0.66490979  0.87691936  0.57796259  1
  Y  Y7  1  0.83509021  0.12308064  0.07796259  1
  I  I8  1  0.06543203  0.83833102  0.60714568  1
  I  I9  1  0.05686675  0.65508177  0.15072585  1
  I  I10  1  0.08995556  0.36511986  0.59446835  1
  I  I11  1  0.24393478  0.89169641  0.26924856  1
  I  I12  1  0.22743561  0.35632145  0.20786555  1
  I  I13  1  0.27256439  0.64367855  0.70786555  1
  I  I14  1  0.25606522  0.10830359  0.76924856  1
  I  I15  1  0.41004444  0.63488014  0.09446835  1
  I  I16  1  0.44313325  0.34491823  0.65072585  1
  I  I17  1  0.43456797  0.16166898  0.10714568  1
  I  I18  1  0.56543203  0.66166898  0.39285432  1
  I  I19  1  0.55686675  0.84491823  0.84927415  1
  I  I20  1  0.58995556  0.13488014  0.40553165  1
  I  I21  1  0.74393478  0.60830359  0.73075144  1
  I  I22  1  0.72743561  0.14367855  0.79213445  1
  I  I23  1  0.77256439  0.85632145  0.29213445  1
  I  I24  1  0.75606522  0.39169641  0.23075144  1
  I  I25  1  0.91004444  0.86511986  0.90553165  1
  I  I26  1  0.94313325  0.15508177  0.34927415  1
  I  I27  1  0.93456797  0.33833102  0.89285432  1
