# generated using pymatgen
data_Nd3Si2S8Br
_symmetry_space_group_name_H-M   'P 1'
_cell_length_a   7.75339034
_cell_length_b   8.81568063
_cell_length_c   10.95571465
_cell_angle_alpha   97.03277372
_cell_angle_beta   90.00000000
_cell_angle_gamma   116.08792845
_symmetry_Int_Tables_number   1
_chemical_formula_structural   Nd3Si2S8Br
_chemical_formula_sum   'Nd6 Si4 S16 Br2'
_cell_volume   666.26821529
_cell_formula_units_Z   2
loop_
 _symmetry_equiv_pos_site_id
 _symmetry_equiv_pos_as_xyz
  1  'x, y, z'
loop_
 _atom_site_type_symbol
 _atom_site_label
 _atom_site_symmetry_multiplicity
 _atom_site_fract_x
 _atom_site_fract_y
 _atom_site_fract_z
 _atom_site_occupancy
  Nd  Nd0  1  0.31991521  0.39422662  0.18384365  1
  Nd  Nd1  1  0.07431141  0.39422662  0.68384365  1
  Nd  Nd2  1  0.92568859  0.60577338  0.31615635  1
  Nd  Nd3  1  0.38750529  0.00000000  0.75000000  1
  Nd  Nd4  1  0.68008479  0.60577338  0.81615635  1
  Nd  Nd5  1  0.61249471  0.00000000  0.25000000  1
  Si  Si6  1  0.69415413  0.31915382  0.02907558  1
  Si  Si7  1  0.37500031  0.68084618  0.47092442  1
  Si  Si8  1  0.30584587  0.68084618  0.97092442  1
  Si  Si9  1  0.62499969  0.31915382  0.52907558  1
  S  S10  1  0.89437515  0.29044783  0.14480593  1
  S  S11  1  0.59097669  0.86677433  0.95395283  1
  S  S12  1  0.60392732  0.70955217  0.35519407  1
  S  S13  1  0.27579764  0.86677433  0.45395283  1
  S  S14  1  0.72420236  0.13322567  0.54604717  1
  S  S15  1  0.28764733  0.43327591  0.91432216  1
  S  S16  1  0.44595120  0.70407605  0.66196135  1
  S  S17  1  0.39607268  0.29044783  0.64480593  1
  S  S18  1  0.55404880  0.29592395  0.33803865  1
  S  S19  1  0.74187515  0.29592395  0.83803865  1
  S  S20  1  0.14562857  0.43327591  0.41432216  1
  S  S21  1  0.71235267  0.56672409  0.08567784  1
  S  S22  1  0.40902331  0.13322567  0.04604717  1
  S  S23  1  0.10562485  0.70955217  0.85519407  1
  S  S24  1  0.85437143  0.56672409  0.58567784  1
  S  S25  1  0.25812485  0.70407605  0.16196135  1
  Br  Br26  1  0.99532633  0.00000000  0.75000000  1
  Br  Br27  1  0.00467367  0.00000000  0.25000000  1
