# generated using pymatgen
data_CsLi2BS3
_symmetry_space_group_name_H-M   'P 1'
_cell_length_a   8.08448063
_cell_length_b   8.12651111
_cell_length_c   10.11399442
_cell_angle_alpha   90.00000000
_cell_angle_beta   90.00000000
_cell_angle_gamma   90.00000000
_symmetry_Int_Tables_number   1
_chemical_formula_structural   CsLi2BS3
_chemical_formula_sum   'Cs4 Li8 B4 S12'
_cell_volume   664.47549285
_cell_formula_units_Z   4
loop_
 _symmetry_equiv_pos_site_id
 _symmetry_equiv_pos_as_xyz
  1  'x, y, z'
loop_
 _atom_site_type_symbol
 _atom_site_label
 _atom_site_symmetry_multiplicity
 _atom_site_fract_x
 _atom_site_fract_y
 _atom_site_fract_z
 _atom_site_occupancy
  Cs  Cs0  1  0.75000000  0.93960638  0.50615521  1
  Cs  Cs1  1  0.75000000  0.56039362  0.00615521  1
  Cs  Cs2  1  0.25000000  0.06039362  0.49384479  1
  Cs  Cs3  1  0.25000000  0.43960638  0.99384479  1
  Li  Li4  1  0.03852695  0.96382875  0.86816306  1
  Li  Li5  1  0.96147305  0.46382875  0.63183694  1
  Li  Li6  1  0.03852695  0.53617125  0.36816306  1
  Li  Li7  1  0.46147305  0.53617125  0.36816306  1
  Li  Li8  1  0.53852695  0.03617125  0.13183694  1
  Li  Li9  1  0.53852695  0.46382875  0.63183694  1
  Li  Li10  1  0.46147305  0.96382875  0.86816306  1
  Li  Li11  1  0.96147305  0.03617125  0.13183694  1
  B  B12  1  0.25000000  0.65474656  0.66714552  1
  B  B13  1  0.75000000  0.34525344  0.33285448  1
  B  B14  1  0.75000000  0.15474656  0.83285448  1
  B  B15  1  0.25000000  0.84525344  0.16714552  1
  S  S16  1  0.55028328  0.27412230  0.27240593  1
  S  S17  1  0.55028328  0.22587770  0.77240593  1
  S  S18  1  0.25000000  0.48971982  0.54088589  1
  S  S19  1  0.75000000  0.98971982  0.95911411  1
  S  S20  1  0.75000000  0.51028018  0.45911411  1
  S  S21  1  0.94971672  0.22587770  0.77240593  1
  S  S22  1  0.44971672  0.77412230  0.22759407  1
  S  S23  1  0.94971672  0.27412230  0.27240593  1
  S  S24  1  0.25000000  0.01028018  0.04088589  1
  S  S25  1  0.05028328  0.77412230  0.22759407  1
  S  S26  1  0.44971672  0.72587770  0.72759407  1
  S  S27  1  0.05028328  0.72587770  0.72759407  1
