# generated using pymatgen
data_Hf2N2O
_symmetry_space_group_name_H-M   'P 1'
_cell_length_a   5.81515261
_cell_length_b   5.48971436
_cell_length_c   7.93103862
_cell_angle_alpha   89.99999479
_cell_angle_beta   94.69860104
_cell_angle_gamma   90.00000021
_symmetry_Int_Tables_number   1
_chemical_formula_structural   Hf2N2O
_chemical_formula_sum   'Hf8 N8 O4'
_cell_volume   252.33586161
_cell_formula_units_Z   4
loop_
 _symmetry_equiv_pos_site_id
 _symmetry_equiv_pos_as_xyz
  1  'x, y, z'
loop_
 _atom_site_type_symbol
 _atom_site_label
 _atom_site_symmetry_multiplicity
 _atom_site_fract_x
 _atom_site_fract_y
 _atom_site_fract_z
 _atom_site_occupancy
  Hf  Hf0  1  0.72081558  0.00026493  0.14304991  1
  Hf  Hf1  1  0.72081558  0.99973507  0.64304991  1
  Hf  Hf2  1  0.78941443  0.51202567  0.35442989  1
  Hf  Hf3  1  0.78941443  0.48797433  0.85442989  1
  Hf  Hf4  1  0.21058557  0.51202567  0.14557011  1
  Hf  Hf5  1  0.21058557  0.48797433  0.64557011  1
  Hf  Hf6  1  0.27918442  0.00026493  0.35695009  1
  Hf  Hf7  1  0.27918442  0.99973507  0.85695009  1
  N  N8  1  0.84767847  0.34849142  0.10016368  1
  N  N9  1  0.84767847  0.65150858  0.60016368  1
  N  N10  1  0.50000000  0.71593941  0.25000000  1
  N  N11  1  0.50000000  0.28406059  0.75000000  1
  N  N12  1  0.15232153  0.34849142  0.39983632  1
  N  N13  1  0.15232153  0.65150858  0.89983632  1
  N  N14  1  0.00000000  0.80777860  0.25000000  1
  N  N15  1  0.00000000  0.19222140  0.75000000  1
  O  O16  1  0.64929304  0.15338727  0.39853685  1
  O  O17  1  0.64929304  0.84661273  0.89853685  1
  O  O18  1  0.35070696  0.15338727  0.10146315  1
  O  O19  1  0.35070696  0.84661273  0.60146315  1
