# generated using pymatgen
data_TiSO5
_symmetry_space_group_name_H-M   'P 1'
_cell_length_a   5.31646026
_cell_length_b   11.10796948
_cell_length_c   26.41427510
_cell_angle_alpha   90.00000000
_cell_angle_beta   90.00000000
_cell_angle_gamma   90.00000000
_symmetry_Int_Tables_number   1
_chemical_formula_structural   TiSO5
_chemical_formula_sum   'Ti16 S16 O80'
_cell_volume   1559.89708452
_cell_formula_units_Z   16
loop_
 _symmetry_equiv_pos_site_id
 _symmetry_equiv_pos_as_xyz
  1  'x, y, z'
loop_
 _atom_site_type_symbol
 _atom_site_label
 _atom_site_symmetry_multiplicity
 _atom_site_fract_x
 _atom_site_fract_y
 _atom_site_fract_z
 _atom_site_occupancy
  Ti  Ti0  1  0.00000000  0.05590030  0.84692891  1
  Ti  Ti1  1  0.50000000  0.17029552  0.02017858  1
  Ti  Ti2  1  0.00000000  0.56363619  0.89952616  1
  Ti  Ti3  1  0.50000000  0.17323527  0.27246281  1
  Ti  Ti4  1  0.50000000  0.68699402  0.22753995  1
  Ti  Ti5  1  0.50000000  0.18699402  0.77246005  1
  Ti  Ti6  1  0.00000000  0.55590030  0.15307109  1
  Ti  Ti7  1  0.50000000  0.18800355  0.52919907  1
  Ti  Ti8  1  0.00000000  0.07658779  0.35589319  1
  Ti  Ti9  1  0.50000000  0.67323527  0.72753719  1
  Ti  Ti10  1  0.00000000  0.06511929  0.60516907  1
  Ti  Ti11  1  0.00000000  0.57658779  0.64410681  1
  Ti  Ti12  1  0.00000000  0.06363619  0.10047384  1
  Ti  Ti13  1  0.50000000  0.68800355  0.47080093  1
  Ti  Ti14  1  0.50000000  0.67029552  0.97982142  1
  Ti  Ti15  1  0.00000000  0.56511929  0.39483093  1
  S  S16  1  0.00000000  0.76993386  0.05872728  1
  S  S17  1  0.00000000  0.78968502  0.30328368  1
  S  S18  1  0.00000000  0.26993386  0.94127272  1
  S  S19  1  0.00000000  0.78657895  0.55241197  1
  S  S20  1  0.00000000  0.76607268  0.80814721  1
  S  S21  1  0.50000000  0.45377756  0.07388290  1
  S  S22  1  0.50000000  0.96271565  0.68049298  1
  S  S23  1  0.50000000  0.98448310  0.43676453  1
  S  S24  1  0.00000000  0.28657895  0.44758803  1
  S  S25  1  0.50000000  0.48448310  0.56323547  1
  S  S26  1  0.50000000  0.96892847  0.18121745  1
  S  S27  1  0.50000000  0.95377756  0.92611710  1
  S  S28  1  0.00000000  0.26607268  0.19185279  1
  S  S29  1  0.00000000  0.28968502  0.69671632  1
  S  S30  1  0.50000000  0.46271565  0.31950702  1
  S  S31  1  0.50000000  0.46892847  0.81878255  1
  O  O32  1  0.00000000  0.68638556  0.33934991  1
  O  O33  1  0.50000000  0.83481866  0.18446908  1
  O  O34  1  0.75052251  0.60962821  0.94160015  1
  O  O35  1  0.77042704  0.75313853  0.52490250  1
  O  O36  1  0.75052251  0.10962821  0.05839985  1
  O  O37  1  0.27046513  0.50721394  0.84493977  1
  O  O38  1  0.00000000  0.41968102  0.43975136  1
  O  O39  1  0.50000000  0.01714455  0.23407045  1
  O  O40  1  0.50000000  0.35129594  0.55824246  1
  O  O41  1  0.72978417  0.02079885  0.41033150  1
  O  O42  1  0.24993281  0.11777184  0.80843464  1
  O  O43  1  0.72954469  0.97410331  0.89654626  1
  O  O44  1  0.77006938  0.25089751  0.97070845  1
  O  O45  1  0.00000000  0.89549253  0.07770175  1
  O  O46  1  0.50000000  0.56376060  0.28231647  1
  O  O47  1  0.50000000  0.82686111  0.94391027  1
  O  O48  1  0.72978417  0.52079885  0.58966850  1
  O  O49  1  0.75006719  0.61777184  0.19156536  1
  O  O50  1  0.00000000  0.72066106  0.86140397  1
  O  O51  1  0.00000000  0.22996846  0.39623166  1
  O  O52  1  0.77062428  0.22655663  0.21761263  1
  O  O53  1  0.75006719  0.11777184  0.80843464  1
  O  O54  1  0.72995539  0.96785539  0.64974666  1
  O  O55  1  0.22937572  0.22655663  0.21761263  1
  O  O56  1  0.00000000  0.90334836  0.33332665  1
  O  O57  1  0.50000000  0.34775226  0.29060465  1
  O  O58  1  0.50000000  0.33481866  0.81553092  1
  O  O59  1  0.50000000  0.51714455  0.76592955  1
  O  O60  1  0.77062428  0.72655663  0.78238737  1
  O  O61  1  0.50000000  0.03206680  0.97190904  1
  O  O62  1  0.50000000  0.06376060  0.71768353  1
  O  O63  1  0.72953487  0.50721394  0.84493977  1
  O  O64  1  0.27021583  0.52079885  0.58966850  1
  O  O65  1  0.22957296  0.75313853  0.52490250  1
  O  O66  1  0.22993062  0.25089751  0.97070845  1
  O  O67  1  0.77019051  0.78541241  0.27241665  1
  O  O68  1  0.00000000  0.40019790  0.18971261  1
  O  O69  1  0.25014791  0.12649329  0.31458262  1
  O  O70  1  0.72954469  0.47410331  0.10345374  1
  O  O71  1  0.27021583  0.02079885  0.41033150  1
  O  O72  1  0.50000000  0.03528846  0.48905142  1
  O  O73  1  0.72953487  0.00721394  0.15506023  1
  O  O74  1  0.00000000  0.39549253  0.92229825  1
  O  O75  1  0.77042704  0.25313853  0.47509750  1
  O  O76  1  0.00000000  0.69056584  0.10409649  1
  O  O77  1  0.00000000  0.40334836  0.66667335  1
  O  O78  1  0.00000000  0.90019790  0.81028739  1
  O  O79  1  0.24993281  0.61777184  0.19156536  1
  O  O80  1  0.74985209  0.62649329  0.68541738  1
  O  O81  1  0.50000000  0.84775226  0.70939535  1
  O  O82  1  0.50000000  0.85129594  0.44175754  1
  O  O83  1  0.22980949  0.78541241  0.27241665  1
  O  O84  1  0.50000000  0.32686111  0.05608973  1
  O  O85  1  0.22937572  0.72655663  0.78238737  1
  O  O86  1  0.77006938  0.75089751  0.02929155  1
  O  O87  1  0.22993062  0.75089751  0.02929155  1
  O  O88  1  0.24947749  0.60962821  0.94160015  1
  O  O89  1  0.00000000  0.72996846  0.60376834  1
  O  O90  1  0.25022347  0.13646194  0.57010593  1
  O  O91  1  0.00000000  0.18638556  0.66065009  1
  O  O92  1  0.24947749  0.10962821  0.05839985  1
  O  O93  1  0.00000000  0.19056584  0.89590351  1
  O  O94  1  0.00000000  0.22066106  0.13859603  1
  O  O95  1  0.22980949  0.28541241  0.72758335  1
  O  O96  1  0.27045531  0.47410331  0.10345374  1
  O  O97  1  0.72995539  0.46785539  0.35025334  1
  O  O98  1  0.74977653  0.63646194  0.42989407  1
  O  O99  1  0.74985209  0.12649329  0.31458262  1
  O  O100  1  0.00000000  0.91968102  0.56024864  1
  O  O101  1  0.27046513  0.00721394  0.15506023  1
  O  O102  1  0.22957296  0.25313853  0.47509750  1
  O  O103  1  0.74977653  0.13646194  0.57010593  1
  O  O104  1  0.27045531  0.97410331  0.89654626  1
  O  O105  1  0.25022347  0.63646194  0.42989407  1
  O  O106  1  0.77019051  0.28541241  0.72758335  1
  O  O107  1  0.27004461  0.46785539  0.35025334  1
  O  O108  1  0.27004461  0.96785539  0.64974666  1
  O  O109  1  0.25014791  0.62649329  0.68541738  1
  O  O110  1  0.50000000  0.53206680  0.02809096  1
  O  O111  1  0.50000000  0.53528846  0.51094858  1
