# generated using pymatgen
data_Na3Cr2(PS4)3
_symmetry_space_group_name_H-M   'P 1'
_cell_length_a   9.85716139
_cell_length_b   11.44242031
_cell_length_c   17.56846695
_cell_angle_alpha   90.00000000
_cell_angle_beta   94.48296472
_cell_angle_gamma   90.00000000
_symmetry_Int_Tables_number   1
_chemical_formula_structural   Na3Cr2(PS4)3
_chemical_formula_sum   'Na12 Cr8 P12 S48'
_cell_volume   1975.48128657
_cell_formula_units_Z   4
loop_
 _symmetry_equiv_pos_site_id
 _symmetry_equiv_pos_as_xyz
  1  'x, y, z'
loop_
 _atom_site_type_symbol
 _atom_site_label
 _atom_site_symmetry_multiplicity
 _atom_site_fract_x
 _atom_site_fract_y
 _atom_site_fract_z
 _atom_site_occupancy
  Na  Na0  1  0.00382636  0.12427910  0.20499891  1
  Na  Na1  1  0.99617364  0.87572090  0.79500109  1
  Na  Na2  1  0.50382636  0.37572090  0.70499891  1
  Na  Na3  1  0.54039173  0.08285619  0.85335582  1
  Na  Na4  1  0.49617364  0.62427910  0.29500109  1
  Na  Na5  1  0.26111979  0.08263143  0.55004950  1
  Na  Na6  1  0.23888021  0.58263143  0.94995050  1
  Na  Na7  1  0.76111979  0.41736857  0.05004950  1
  Na  Na8  1  0.45960827  0.91714381  0.14664418  1
  Na  Na9  1  0.73888021  0.91736857  0.44995050  1
  Na  Na10  1  0.95960827  0.58285619  0.64664418  1
  Na  Na11  1  0.04039173  0.41714381  0.35335582  1
  Cr  Cr12  1  0.57240419  0.73220838  0.78832007  1
  Cr  Cr13  1  0.10306233  0.22028779  0.89976805  1
  Cr  Cr14  1  0.92759581  0.23220838  0.71167993  1
  Cr  Cr15  1  0.07240419  0.76779162  0.28832007  1
  Cr  Cr16  1  0.60306233  0.27971221  0.39976805  1
  Cr  Cr17  1  0.42759581  0.26779162  0.21167993  1
  Cr  Cr18  1  0.39693767  0.72028779  0.60023195  1
  Cr  Cr19  1  0.89693767  0.77971221  0.10023195  1
  P  P20  1  0.77883312  0.86597288  0.25087462  1
  P  P21  1  0.22729459  0.73862774  0.44582610  1
  P  P22  1  0.30515087  0.18422473  0.36345313  1
  P  P23  1  0.27883312  0.63402712  0.75087462  1
  P  P24  1  0.19484913  0.68422473  0.13654687  1
  P  P25  1  0.80515087  0.31577527  0.86345313  1
  P  P26  1  0.22116688  0.13402712  0.74912538  1
  P  P27  1  0.72729459  0.76137226  0.94582610  1
  P  P28  1  0.69484913  0.81577527  0.63654687  1
  P  P29  1  0.77270541  0.26137226  0.55417390  1
  P  P30  1  0.27270541  0.23862774  0.05417390  1
  P  P31  1  0.72116688  0.36597288  0.24912538  1
  S  S32  1  0.27110817  0.55390103  0.64528116  1
  S  S33  1  0.29732777  0.10750439  0.25665806  1
  S  S34  1  0.09896552  0.63771290  0.79749808  1
  S  S35  1  0.64398630  0.19956161  0.27417698  1
  S  S36  1  0.29783311  0.32375984  0.95316885  1
  S  S37  1  0.38453074  0.35041193  0.33701169  1
  S  S38  1  0.12719184  0.19075388  0.40975583  1
  S  S39  1  0.79783311  0.17624016  0.45316885  1
  S  S40  1  0.22889183  0.05390103  0.85471884  1
  S  S41  1  0.20216689  0.82375984  0.54683115  1
  S  S42  1  0.56567295  0.43514545  0.17805899  1
  S  S43  1  0.43432705  0.56485455  0.82194101  1
  S  S44  1  0.20267223  0.60750439  0.24334194  1
  S  S45  1  0.61546926  0.64958807  0.66298831  1
  S  S46  1  0.72889183  0.44609897  0.35471884  1
  S  S47  1  0.90103448  0.36228710  0.20250192  1
  S  S48  1  0.88453074  0.14958807  0.83701169  1
  S  S49  1  0.14398630  0.30043839  0.77417698  1
  S  S50  1  0.70267223  0.89249561  0.74334194  1
  S  S51  1  0.40103448  0.13771290  0.70250192  1
  S  S52  1  0.70216689  0.67624016  0.04683115  1
  S  S53  1  0.06567295  0.06485455  0.67805899  1
  S  S54  1  0.79732777  0.39249561  0.75665806  1
  S  S55  1  0.77110817  0.94609897  0.14528116  1
  S  S56  1  0.53803437  0.88072717  0.56545335  1
  S  S57  1  0.54788264  0.84016982  0.90428494  1
  S  S58  1  0.35601370  0.80043839  0.72582302  1
  S  S59  1  0.96196563  0.38072717  0.93454665  1
  S  S60  1  0.11559759  0.12616525  0.02389084  1
  S  S61  1  0.85601370  0.69956161  0.22582302  1
  S  S62  1  0.95211736  0.34016982  0.59571506  1
  S  S63  1  0.11546926  0.85041193  0.16298831  1
  S  S64  1  0.04788264  0.65983018  0.40428494  1
  S  S65  1  0.37280816  0.69075388  0.09024417  1
  S  S66  1  0.87280816  0.80924612  0.59024417  1
  S  S67  1  0.59896552  0.86228710  0.29749808  1
  S  S68  1  0.62719184  0.30924612  0.90975583  1
  S  S69  1  0.73452648  0.14955667  0.64068621  1
  S  S70  1  0.88440241  0.87383475  0.97610916  1
  S  S71  1  0.46196563  0.11927283  0.43454665  1
  S  S72  1  0.61559759  0.37383475  0.52389084  1
  S  S73  1  0.26547352  0.85044333  0.35931379  1
  S  S74  1  0.23452648  0.35044333  0.14068621  1
  S  S75  1  0.03803437  0.61927283  0.06545335  1
  S  S76  1  0.45211736  0.15983018  0.09571506  1
  S  S77  1  0.93432705  0.93514545  0.32194101  1
  S  S78  1  0.76547352  0.64955667  0.85931379  1
  S  S79  1  0.38440241  0.62616525  0.47610916  1
