# generated using pymatgen
data_AgTeO3
_symmetry_space_group_name_H-M   'P 1'
_cell_length_a   6.64362294
_cell_length_b   7.06203410
_cell_length_c   13.52209761
_cell_angle_alpha   90.00000000
_cell_angle_beta   90.78456268
_cell_angle_gamma   90.00000000
_symmetry_Int_Tables_number   1
_chemical_formula_structural   AgTeO3
_chemical_formula_sum   'Ag8 Te8 O24'
_cell_volume   634.36342604
_cell_formula_units_Z   8
loop_
 _symmetry_equiv_pos_site_id
 _symmetry_equiv_pos_as_xyz
  1  'x, y, z'
loop_
 _atom_site_type_symbol
 _atom_site_label
 _atom_site_symmetry_multiplicity
 _atom_site_fract_x
 _atom_site_fract_y
 _atom_site_fract_z
 _atom_site_occupancy
  Ag  Ag0  1  0.50625222  0.81607286  0.93131034  1
  Ag  Ag1  1  0.50625222  0.68392714  0.43131034  1
  Ag  Ag2  1  0.47054892  0.55310624  0.19776003  1
  Ag  Ag3  1  0.49374778  0.31607286  0.56868966  1
  Ag  Ag4  1  0.52945108  0.44689376  0.80223997  1
  Ag  Ag5  1  0.47054892  0.94689376  0.69776003  1
  Ag  Ag6  1  0.49374778  0.18392714  0.06868966  1
  Ag  Ag7  1  0.52945108  0.05310624  0.30223997  1
  Te  Te8  1  0.00360864  0.86603940  0.40950641  1
  Te  Te9  1  0.13985781  0.15994725  0.85985688  1
  Te  Te10  1  0.13985781  0.34005275  0.35985688  1
  Te  Te11  1  0.00360864  0.63396060  0.90950641  1
  Te  Te12  1  0.86014219  0.65994725  0.64014312  1
  Te  Te13  1  0.99639136  0.36603940  0.09049359  1
  Te  Te14  1  0.99639136  0.13396060  0.59049359  1
  Te  Te15  1  0.86014219  0.84005275  0.14014312  1
  O  O16  1  0.84590231  0.08806449  0.46302667  1
  O  O17  1  0.17173251  0.31041121  0.51725660  1
  O  O18  1  0.15409769  0.91193551  0.53697333  1
  O  O19  1  0.42267832  0.35437556  0.35926689  1
  O  O20  1  0.42267832  0.14562444  0.85926689  1
  O  O21  1  0.81215264  0.64466847  0.80071299  1
  O  O22  1  0.81182744  0.32920384  0.62852541  1
  O  O23  1  0.18817256  0.67079616  0.37147459  1
  O  O24  1  0.82705056  0.94679549  0.66028384  1
  O  O25  1  0.18784736  0.35533153  0.19928701  1
  O  O26  1  0.17294944  0.44679549  0.83971616  1
  O  O27  1  0.82705056  0.55320451  0.16028384  1
  O  O28  1  0.18784736  0.14466847  0.69928701  1
  O  O29  1  0.57732168  0.85437556  0.14073311  1
  O  O30  1  0.15409769  0.58806449  0.03697333  1
  O  O31  1  0.82826749  0.81041121  0.98274340  1
  O  O32  1  0.17173251  0.18958879  0.01725660  1
  O  O33  1  0.81182744  0.17079616  0.12852541  1
  O  O34  1  0.17294944  0.05320451  0.33971616  1
  O  O35  1  0.81215264  0.85533153  0.30071299  1
  O  O36  1  0.82826749  0.68958879  0.48274340  1
  O  O37  1  0.57732168  0.64562444  0.64073311  1
  O  O38  1  0.18817256  0.82920384  0.87147459  1
  O  O39  1  0.84590231  0.41193551  0.96302667  1
