# generated using pymatgen
data_La5Sb4(O4F)3
_symmetry_space_group_name_H-M   'P 1'
_cell_length_a   11.62368364
_cell_length_b   12.29337369
_cell_length_c   12.29337369
_cell_angle_alpha   90.00000000
_cell_angle_beta   90.00000000
_cell_angle_gamma   90.00000000
_symmetry_Int_Tables_number   1
_chemical_formula_structural   La5Sb4(O4F)3
_chemical_formula_sum   'La20 Sb16 O48 F12'
_cell_volume   1756.65286384
_cell_formula_units_Z   4
loop_
 _symmetry_equiv_pos_site_id
 _symmetry_equiv_pos_as_xyz
  1  'x, y, z'
loop_
 _atom_site_type_symbol
 _atom_site_label
 _atom_site_symmetry_multiplicity
 _atom_site_fract_x
 _atom_site_fract_y
 _atom_site_fract_z
 _atom_site_occupancy
  La  La0  1  0.60507271  0.07887590  0.39788545  1
  La  La1  1  0.10507271  0.10211455  0.42112410  1
  La  La2  1  0.89492729  0.57887590  0.60211455  1
  La  La3  1  0.35127177  0.25000000  0.25000000  1
  La  La4  1  0.39492729  0.89788545  0.92112410  1
  La  La5  1  0.60507271  0.39788545  0.42112410  1
  La  La6  1  0.89492729  0.92112410  0.89788545  1
  La  La7  1  0.85127177  0.25000000  0.25000000  1
  La  La8  1  0.64872823  0.75000000  0.75000000  1
  La  La9  1  0.39492729  0.57887590  0.89788545  1
  La  La10  1  0.89492729  0.60211455  0.92112410  1
  La  La11  1  0.39492729  0.92112410  0.60211455  1
  La  La12  1  0.60507271  0.10211455  0.07887590  1
  La  La13  1  0.10507271  0.39788545  0.07887590  1
  La  La14  1  0.89492729  0.89788545  0.57887590  1
  La  La15  1  0.60507271  0.42112410  0.10211455  1
  La  La16  1  0.10507271  0.07887590  0.10211455  1
  La  La17  1  0.10507271  0.42112410  0.39788545  1
  La  La18  1  0.14872823  0.75000000  0.75000000  1
  La  La19  1  0.39492729  0.60211455  0.57887590  1
  Sb  Sb20  1  0.12925977  0.73613971  0.04925547  1
  Sb  Sb21  1  0.87074023  0.54925547  0.26386029  1
  Sb  Sb22  1  0.12925977  0.76386029  0.45074453  1
  Sb  Sb23  1  0.37074023  0.54925547  0.23613971  1
  Sb  Sb24  1  0.62925977  0.76386029  0.04925547  1
  Sb  Sb25  1  0.37074023  0.95074453  0.26386029  1
  Sb  Sb26  1  0.62925977  0.73613971  0.45074453  1
  Sb  Sb27  1  0.87074023  0.23613971  0.54925547  1
  Sb  Sb28  1  0.37074023  0.26386029  0.54925547  1
  Sb  Sb29  1  0.12925977  0.04925547  0.76386029  1
  Sb  Sb30  1  0.87074023  0.95074453  0.23613971  1
  Sb  Sb31  1  0.62925977  0.04925547  0.73613971  1
  Sb  Sb32  1  0.12925977  0.45074453  0.73613971  1
  Sb  Sb33  1  0.87074023  0.26386029  0.95074453  1
  Sb  Sb34  1  0.62925977  0.45074453  0.76386029  1
  Sb  Sb35  1  0.37074023  0.23613971  0.95074453  1
  O  O36  1  0.25707372  0.55872911  0.72356108  1
  O  O37  1  0.74292628  0.27643892  0.05872911  1
  O  O38  1  0.02611233  0.92345306  0.72907765  1
  O  O39  1  0.75707372  0.77643892  0.94127089  1
  O  O40  1  0.06300799  0.58778442  0.05043221  1
  O  O41  1  0.74292628  0.22356108  0.44127089  1
  O  O42  1  0.06300799  0.44956779  0.58778442  1
  O  O43  1  0.24292628  0.27643892  0.44127089  1
  O  O44  1  0.75707372  0.72356108  0.55872911  1
  O  O45  1  0.47388767  0.22907765  0.42345306  1
  O  O46  1  0.74292628  0.44127089  0.27643892  1
  O  O47  1  0.52611233  0.77092235  0.57654694  1
  O  O48  1  0.56300799  0.05043221  0.58778442  1
  O  O49  1  0.56300799  0.91221558  0.05043221  1
  O  O50  1  0.06300799  0.05043221  0.91221558  1
  O  O51  1  0.06300799  0.91221558  0.44956779  1
  O  O52  1  0.97388767  0.07654694  0.27092235  1
  O  O53  1  0.56300799  0.58778442  0.44956779  1
  O  O54  1  0.52611233  0.92345306  0.77092235  1
  O  O55  1  0.52611233  0.72907765  0.92345306  1
  O  O56  1  0.24292628  0.44127089  0.22356108  1
  O  O57  1  0.97388767  0.27092235  0.42345306  1
  O  O58  1  0.56300799  0.44956779  0.91221558  1
  O  O59  1  0.93699201  0.08778442  0.55043221  1
  O  O60  1  0.74292628  0.05872911  0.22356108  1
  O  O61  1  0.47388767  0.07654694  0.22907765  1
  O  O62  1  0.43699201  0.41221558  0.55043221  1
  O  O63  1  0.47388767  0.27092235  0.07654694  1
  O  O64  1  0.75707372  0.55872911  0.77643892  1
  O  O65  1  0.52611233  0.57654694  0.72907765  1
  O  O66  1  0.97388767  0.42345306  0.22907765  1
  O  O67  1  0.93699201  0.41221558  0.94956779  1
  O  O68  1  0.24292628  0.05872911  0.27643892  1
  O  O69  1  0.25707372  0.72356108  0.94127089  1
  O  O70  1  0.43699201  0.55043221  0.08778442  1
  O  O71  1  0.75707372  0.94127089  0.72356108  1
  O  O72  1  0.24292628  0.22356108  0.05872911  1
  O  O73  1  0.02611233  0.77092235  0.92345306  1
  O  O74  1  0.97388767  0.22907765  0.07654694  1
  O  O75  1  0.25707372  0.77643892  0.55872911  1
  O  O76  1  0.25707372  0.94127089  0.77643892  1
  O  O77  1  0.43699201  0.94956779  0.41221558  1
  O  O78  1  0.02611233  0.72907765  0.57654694  1
  O  O79  1  0.02611233  0.57654694  0.77092235  1
  O  O80  1  0.93699201  0.55043221  0.41221558  1
  O  O81  1  0.47388767  0.42345306  0.27092235  1
  O  O82  1  0.43699201  0.08778442  0.94956779  1
  O  O83  1  0.93699201  0.94956779  0.08778442  1
  F  F84  1  0.36950131  0.75000000  0.75000000  1
  F  F85  1  0.75000000  0.55518614  0.05518614  1
  F  F86  1  0.75000000  0.44481386  0.55518614  1
  F  F87  1  0.86950131  0.75000000  0.75000000  1
  F  F88  1  0.13049869  0.25000000  0.25000000  1
  F  F89  1  0.25000000  0.05518614  0.55518614  1
  F  F90  1  0.25000000  0.94481386  0.05518614  1
  F  F91  1  0.25000000  0.44481386  0.94481386  1
  F  F92  1  0.75000000  0.05518614  0.94481386  1
  F  F93  1  0.63049869  0.25000000  0.25000000  1
  F  F94  1  0.25000000  0.55518614  0.44481386  1
  F  F95  1  0.75000000  0.94481386  0.44481386  1
