# generated using pymatgen
data_K3Cr2(PS4)3
_symmetry_space_group_name_H-M   'P 1'
_cell_length_a   9.96996780
_cell_length_b   12.62221710
_cell_length_c   18.02316688
_cell_angle_alpha   90.00000000
_cell_angle_beta   96.75062894
_cell_angle_gamma   90.00000000
_symmetry_Int_Tables_number   1
_chemical_formula_structural   K3Cr2(PS4)3
_chemical_formula_sum   'K12 Cr8 P12 S48'
_cell_volume   2252.36685985
_cell_formula_units_Z   4
loop_
 _symmetry_equiv_pos_site_id
 _symmetry_equiv_pos_as_xyz
  1  'x, y, z'
loop_
 _atom_site_type_symbol
 _atom_site_label
 _atom_site_symmetry_multiplicity
 _atom_site_fract_x
 _atom_site_fract_y
 _atom_site_fract_z
 _atom_site_occupancy
  K  K0  1  0.99254199  0.13159654  0.79622754  1
  K  K1  1  0.07256104  0.57903644  0.37912416  1
  K  K2  1  0.23081008  0.43684071  0.95400001  1
  K  K3  1  0.57256104  0.92096356  0.87912416  1
  K  K4  1  0.92743896  0.42096356  0.62087584  1
  K  K5  1  0.76918992  0.56315929  0.04599999  1
  K  K6  1  0.49254199  0.36840346  0.29622754  1
  K  K7  1  0.50745801  0.63159654  0.70377246  1
  K  K8  1  0.42743896  0.07903644  0.12087584  1
  K  K9  1  0.26918992  0.93684071  0.54599999  1
  K  K10  1  0.00745801  0.86840346  0.20377246  1
  K  K11  1  0.73081008  0.06315929  0.45400001  1
  Cr  Cr12  1  0.94606308  0.77115665  0.71006413  1
  Cr  Cr13  1  0.05393692  0.22884335  0.28993587  1
  Cr  Cr14  1  0.55393692  0.27115665  0.78993587  1
  Cr  Cr15  1  0.12107276  0.78265416  0.89771465  1
  Cr  Cr16  1  0.44606308  0.72884335  0.21006413  1
  Cr  Cr17  1  0.62107276  0.71734584  0.39771465  1
  Cr  Cr18  1  0.37892724  0.28265416  0.60228535  1
  Cr  Cr19  1  0.87892724  0.21734584  0.10228535  1
  P  P20  1  0.73222503  0.62742884  0.25366536  1
  P  P21  1  0.23222503  0.87257116  0.75366536  1
  P  P22  1  0.32869347  0.81706788  0.35377636  1
  P  P23  1  0.67130653  0.18293212  0.64622364  1
  P  P24  1  0.76777497  0.12742884  0.24633464  1
  P  P25  1  0.20540190  0.26001383  0.44814558  1
  P  P26  1  0.79459810  0.73998617  0.55185442  1
  P  P27  1  0.70540190  0.23998617  0.94814558  1
  P  P28  1  0.26777497  0.37257116  0.74633464  1
  P  P29  1  0.82869347  0.68293212  0.85377636  1
  P  P30  1  0.29459810  0.76001383  0.05185442  1
  P  P31  1  0.17130653  0.31706788  0.14622364  1
  S  S32  1  0.92925860  0.07109376  0.31720446  1
  S  S33  1  0.01342140  0.36620378  0.07036421  1
  S  S34  1  0.74934635  0.34148175  0.86577242  1
  S  S35  1  0.07074140  0.92890624  0.68279554  1
  S  S36  1  0.57074140  0.57109376  0.18279554  1
  S  S37  1  0.76568459  0.06085300  0.14135034  1
  S  S38  1  0.97545512  0.67519548  0.59713114  1
  S  S39  1  0.66412386  0.78272053  0.27463312  1
  S  S40  1  0.85226190  0.17451655  0.61040638  1
  S  S41  1  0.24934635  0.15851825  0.36577242  1
  S  S42  1  0.26568459  0.43914700  0.64135034  1
  S  S43  1  0.35226190  0.32548345  0.11040638  1
  S  S44  1  0.85870763  0.13366451  0.97893252  1
  S  S45  1  0.14129237  0.86633549  0.02106748  1
  S  S46  1  0.25065365  0.65851825  0.13422758  1
  S  S47  1  0.83587614  0.28272053  0.22536688  1
  S  S48  1  0.16519632  0.38367709  0.24992481  1
  S  S49  1  0.52454488  0.17519548  0.90286886  1
  S  S50  1  0.64773810  0.67451655  0.88959362  1
  S  S51  1  0.02454488  0.32480452  0.40286886  1
  S  S52  1  0.60252895  0.33875992  0.66695077  1
  S  S53  1  0.10252895  0.16124008  0.16695077  1
  S  S54  1  0.14773810  0.82548345  0.38959362  1
  S  S55  1  0.89747105  0.83875992  0.83304923  1
  S  S56  1  0.98657860  0.63379622  0.92963579  1
  S  S57  1  0.23431541  0.93914700  0.85864966  1
  S  S58  1  0.83480368  0.61632291  0.75007519  1
  S  S59  1  0.18156763  0.19027035  0.54870270  1
  S  S60  1  0.66519632  0.11632291  0.74992481  1
  S  S61  1  0.59109823  0.12131178  0.28738765  1
  S  S62  1  0.73431541  0.56085300  0.35864966  1
  S  S63  1  0.35870763  0.36633549  0.47893252  1
  S  S64  1  0.47545512  0.82480452  0.09713114  1
  S  S65  1  0.81843237  0.80972965  0.45129730  1
  S  S66  1  0.40890177  0.87868822  0.71261235  1
  S  S67  1  0.09109823  0.37868822  0.78738765  1
  S  S68  1  0.42925860  0.42890624  0.81720446  1
  S  S69  1  0.68156763  0.30972965  0.04870270  1
  S  S70  1  0.48657860  0.86620378  0.42963579  1
  S  S71  1  0.39747105  0.66124008  0.33304923  1
  S  S72  1  0.90890177  0.62131178  0.21261235  1
  S  S73  1  0.31843237  0.69027035  0.95129730  1
  S  S74  1  0.16412386  0.71727947  0.77463312  1
  S  S75  1  0.75065365  0.84148175  0.63422758  1
  S  S76  1  0.64129237  0.63366451  0.52106748  1
  S  S77  1  0.33587614  0.21727947  0.72536688  1
  S  S78  1  0.33480368  0.88367709  0.25007519  1
  S  S79  1  0.51342140  0.13379622  0.57036421  1
