# generated using pymatgen
data_Rb2U3(IO5)4
_symmetry_space_group_name_H-M   'P 1'
_cell_length_a   7.10187680
_cell_length_b   8.17943206
_cell_length_c   9.36155615
_cell_angle_alpha   90.16523574
_cell_angle_beta   104.68401945
_cell_angle_gamma   92.18755221
_symmetry_Int_Tables_number   1
_chemical_formula_structural   Rb2U3(IO5)4
_chemical_formula_sum   'Rb2 U3 I4 O20'
_cell_volume   525.61714322
_cell_formula_units_Z   1
loop_
 _symmetry_equiv_pos_site_id
 _symmetry_equiv_pos_as_xyz
  1  'x, y, z'
loop_
 _atom_site_type_symbol
 _atom_site_label
 _atom_site_symmetry_multiplicity
 _atom_site_fract_x
 _atom_site_fract_y
 _atom_site_fract_z
 _atom_site_occupancy
  Rb  Rb0  1  0.24378436  0.58789229  0.85083615  1
  Rb  Rb1  1  0.75621564  0.41210771  0.14916385  1
  U  U2  1  0.54866423  0.92080291  0.19154287  1
  U  U3  1  0.45133577  0.07919709  0.80845713  1
  U  U4  1  0.00000000  0.00000000  0.00000000  1
  I  I5  1  0.12174202  0.79977975  0.37469999  1
  I  I6  1  0.69860345  0.64986902  0.55386074  1
  I  I7  1  0.30139655  0.35013098  0.44613926  1
  I  I8  1  0.87825798  0.20022025  0.62530001  1
  O  O9  1  0.52178267  0.70892346  0.12146721  1
  O  O10  1  0.57980581  0.12871811  0.27016624  1
  O  O11  1  0.04921734  0.28388796  0.44729701  1
  O  O12  1  0.64576396  0.48055866  0.42049841  1
  O  O13  1  0.22691891  0.91749426  0.23702494  1
  O  O14  1  0.43486686  0.18727894  0.56162714  1
  O  O15  1  0.69031283  0.01043348  0.01198306  1
  O  O16  1  0.30968717  0.98956652  0.98801694  1
  O  O17  1  0.11294134  0.11416463  0.71922804  1
  O  O18  1  0.35423604  0.51944134  0.57950159  1
  O  O19  1  0.47821733  0.29107654  0.87853279  1
  O  O20  1  0.04448771  0.21284094  0.06422118  1
  O  O21  1  0.89565821  0.39895888  0.71304171  1
  O  O22  1  0.42019419  0.87128189  0.72983376  1
  O  O23  1  0.10434179  0.60104112  0.28695829  1
  O  O24  1  0.95078266  0.71611204  0.55270299  1
  O  O25  1  0.88705866  0.88583537  0.28077196  1
  O  O26  1  0.56513314  0.81272106  0.43837286  1
  O  O27  1  0.77308109  0.08250574  0.76297506  1
  O  O28  1  0.95551229  0.78715906  0.93577882  1
