# generated using pymatgen
data_Rb2Al2B2O7
_symmetry_space_group_name_H-M   'P 1'
_cell_length_a   7.66724514
_cell_length_b   9.01021634
_cell_length_c   12.07563200
_cell_angle_alpha   104.06478010
_cell_angle_beta   90.00000000
_cell_angle_gamma   90.00000000
_symmetry_Int_Tables_number   1
_chemical_formula_structural   Rb2Al2B2O7
_chemical_formula_sum   'Rb8 Al8 B8 O28'
_cell_volume   809.21855941
_cell_formula_units_Z   4
loop_
 _symmetry_equiv_pos_site_id
 _symmetry_equiv_pos_as_xyz
  1  'x, y, z'
loop_
 _atom_site_type_symbol
 _atom_site_label
 _atom_site_symmetry_multiplicity
 _atom_site_fract_x
 _atom_site_fract_y
 _atom_site_fract_z
 _atom_site_occupancy
  Rb  Rb0  1  0.36028058  0.03455621  0.12770865  1
  Rb  Rb1  1  0.86028058  0.96544379  0.37229135  1
  Rb  Rb2  1  0.86682532  0.45657531  0.85269134  1
  Rb  Rb3  1  0.36682532  0.54342469  0.64730866  1
  Rb  Rb4  1  0.63317468  0.45657531  0.35269134  1
  Rb  Rb5  1  0.63971942  0.96544379  0.87229135  1
  Rb  Rb6  1  0.13971942  0.03455621  0.62770865  1
  Rb  Rb7  1  0.13317468  0.54342469  0.14730866  1
  Al  Al8  1  0.87650855  0.65813884  0.62184098  1
  Al  Al9  1  0.62349145  0.65813884  0.12184098  1
  Al  Al10  1  0.37650855  0.34186116  0.87815902  1
  Al  Al11  1  0.58279098  0.18497908  0.63414255  1
  Al  Al12  1  0.41720902  0.81502092  0.36585745  1
  Al  Al13  1  0.08279098  0.81502092  0.86585745  1
  Al  Al14  1  0.91720902  0.18497908  0.13414255  1
  Al  Al15  1  0.12349145  0.34186116  0.37815902  1
  B  B16  1  0.41133106  0.15568252  0.41168030  1
  B  B17  1  0.11604319  0.68137104  0.43789645  1
  B  B18  1  0.58866894  0.84431748  0.58831970  1
  B  B19  1  0.61604319  0.31862896  0.06210355  1
  B  B20  1  0.08866894  0.15568252  0.91168030  1
  B  B21  1  0.38395681  0.68137104  0.93789645  1
  B  B22  1  0.88395681  0.31862896  0.56210355  1
  B  B23  1  0.91133106  0.84431748  0.08831970  1
  O  O24  1  0.53858755  0.77071587  0.47924340  1
  O  O25  1  0.80845733  0.20272621  0.60372106  1
  O  O26  1  0.96946827  0.71811880  0.50515827  1
  O  O27  1  0.01913349  0.69215975  0.73753754  1
  O  O28  1  0.46946827  0.28188120  0.99484173  1
  O  O29  1  0.54217636  0.99369057  0.63861506  1
  O  O30  1  0.81205602  0.46322176  0.58860212  1
  O  O31  1  0.45782364  0.00630943  0.36138494  1
  O  O32  1  0.30845733  0.79727379  0.89627894  1
  O  O33  1  0.03858755  0.22928413  0.02075660  1
  O  O34  1  0.46141245  0.22928413  0.52075660  1
  O  O35  1  0.31205602  0.53677824  0.91139788  1
  O  O36  1  0.68794398  0.46322176  0.08860212  1
  O  O37  1  0.18000347  0.23667214  0.84650689  1
  O  O38  1  0.31999653  0.23667214  0.34650689  1
  O  O39  1  0.51913349  0.30784025  0.76246246  1
  O  O40  1  0.95782364  0.99369057  0.13861506  1
  O  O41  1  0.18794398  0.53677824  0.41139788  1
  O  O42  1  0.19154267  0.79727379  0.39627894  1
  O  O43  1  0.68000347  0.76332786  0.65349311  1
  O  O44  1  0.04217636  0.00630943  0.86138494  1
  O  O45  1  0.03053173  0.28188120  0.49484173  1
  O  O46  1  0.96141245  0.77071587  0.97924340  1
  O  O47  1  0.69154267  0.20272621  0.10372106  1
  O  O48  1  0.81999653  0.76332786  0.15349311  1
  O  O49  1  0.53053173  0.71811880  0.00515827  1
  O  O50  1  0.48086651  0.69215975  0.23753754  1
  O  O51  1  0.98086651  0.30784025  0.26246246  1
