# generated using pymatgen
data_La4S3NCl3
_symmetry_space_group_name_H-M   'P 1'
_cell_length_a   9.47532706
_cell_length_b   9.47532718
_cell_length_c   7.03242611
_cell_angle_alpha   90.00000000
_cell_angle_beta   90.00000000
_cell_angle_gamma   119.99999959
_symmetry_Int_Tables_number   1
_chemical_formula_structural   La4S3NCl3
_chemical_formula_sum   'La8 S6 N2 Cl6'
_cell_volume   546.79462343
_cell_formula_units_Z   2
loop_
 _symmetry_equiv_pos_site_id
 _symmetry_equiv_pos_as_xyz
  1  'x, y, z'
loop_
 _atom_site_type_symbol
 _atom_site_label
 _atom_site_symmetry_multiplicity
 _atom_site_fract_x
 _atom_site_fract_y
 _atom_site_fract_z
 _atom_site_occupancy
  La  La0  1  0.20137483  0.40274967  0.25066844  1
  La  La1  1  0.20137483  0.79862517  0.25066844  1
  La  La2  1  0.33333300  0.66666700  0.71083467  1
  La  La3  1  0.79862517  0.20137483  0.75066844  1
  La  La4  1  0.40274967  0.20137483  0.75066844  1
  La  La5  1  0.79862517  0.59725033  0.75066844  1
  La  La6  1  0.59725033  0.79862517  0.25066844  1
  La  La7  1  0.66666700  0.33333300  0.21083467  1
  S  S8  1  0.46826308  0.53173692  0.97170066  1
  S  S9  1  0.46826308  0.93652616  0.97170066  1
  S  S10  1  0.53173692  0.06347384  0.47170066  1
  S  S11  1  0.53173692  0.46826308  0.47170066  1
  S  S12  1  0.93652616  0.46826308  0.47170066  1
  S  S13  1  0.06347384  0.53173692  0.97170066  1
  N  N14  1  0.33333300  0.66666700  0.36547052  1
  N  N15  1  0.66666700  0.33333300  0.86547052  1
  Cl  Cl16  1  0.86808962  0.73617925  0.14209583  1
  Cl  Cl17  1  0.13191038  0.86808962  0.64209583  1
  Cl  Cl18  1  0.86808962  0.13191038  0.14209583  1
  Cl  Cl19  1  0.13191038  0.26382075  0.64209583  1
  Cl  Cl20  1  0.26382075  0.13191038  0.14209583  1
  Cl  Cl21  1  0.73617925  0.86808962  0.64209583  1
