# generated using pymatgen
data_Er2Te5O13
_symmetry_space_group_name_H-M   'P 1'
_cell_length_a   6.98281387
_cell_length_b   8.74079088
_cell_length_c   10.71130366
_cell_angle_alpha   89.21418728
_cell_angle_beta   87.17215488
_cell_angle_gamma   74.78582100
_symmetry_Int_Tables_number   1
_chemical_formula_structural   Er2Te5O13
_chemical_formula_sum   'Er4 Te10 O26'
_cell_volume   630.08586876
_cell_formula_units_Z   2
loop_
 _symmetry_equiv_pos_site_id
 _symmetry_equiv_pos_as_xyz
  1  'x, y, z'
loop_
 _atom_site_type_symbol
 _atom_site_label
 _atom_site_symmetry_multiplicity
 _atom_site_fract_x
 _atom_site_fract_y
 _atom_site_fract_z
 _atom_site_occupancy
  Er  Er0  1  0.55247153  0.52806341  0.17935836  1
  Er  Er1  1  0.99829315  0.73862086  0.23962110  1
  Er  Er2  1  0.44752847  0.47193659  0.82064164  1
  Er  Er3  1  0.00170685  0.26137914  0.76037890  1
  Te  Te4  1  0.15701439  0.80339164  0.64033869  1
  Te  Te5  1  0.27335685  0.39373200  0.48682360  1
  Te  Te6  1  0.71042732  0.12378665  0.02355037  1
  Te  Te7  1  0.56323929  0.09784816  0.69837742  1
  Te  Te8  1  0.87743111  0.64968063  0.89142250  1
  Te  Te9  1  0.72664315  0.60626800  0.51317640  1
  Te  Te10  1  0.43676071  0.90215184  0.30162258  1
  Te  Te11  1  0.28957268  0.87621335  0.97644963  1
  Te  Te12  1  0.84298561  0.19660836  0.35966131  1
  Te  Te13  1  0.12256889  0.35031937  0.10857750  1
  O  O14  1  0.66139587  0.48718353  0.38148305  1
  O  O15  1  0.04442076  0.34928763  0.56645147  1
  O  O16  1  0.65294580  0.01594472  0.87520828  1
  O  O17  1  0.05663057  0.81916782  0.03951789  1
  O  O18  1  0.87428040  0.51014051  0.10659090  1
  O  O19  1  0.31315201  0.73503485  0.28560435  1
  O  O20  1  0.46372867  0.19303512  0.51846704  1
  O  O21  1  0.06671596  0.26482634  0.27800603  1
  O  O22  1  0.32791917  0.22599561  0.77671266  1
  O  O23  1  0.33860413  0.51281647  0.61851695  1
  O  O24  1  0.93328404  0.73517366  0.72199397  1
  O  O25  1  0.12571960  0.48985949  0.89340910  1
  O  O26  1  0.66857412  0.25982303  0.22652966  1
  O  O27  1  0.67208083  0.77400439  0.22328734  1
  O  O28  1  0.76481611  0.50336308  0.81191341  1
  O  O29  1  0.46620178  0.66950080  0.99999747  1
  O  O30  1  0.53627133  0.80696488  0.48153296  1
  O  O31  1  0.94336943  0.18083218  0.96048211  1
  O  O32  1  0.34705420  0.98405528  0.12479172  1
  O  O33  1  0.23518389  0.49663692  0.18808659  1
  O  O34  1  0.93472665  0.98211432  0.31144287  1
  O  O35  1  0.06527335  0.01788568  0.68855713  1
  O  O36  1  0.68684799  0.26496515  0.71439565  1
  O  O37  1  0.53379822  0.33049920  0.00000253  1
  O  O38  1  0.33142588  0.74017697  0.77347034  1
  O  O39  1  0.95557924  0.65071237  0.43354853  1
