# generated using pymatgen
data_BTe3(OF5)3
_symmetry_space_group_name_H-M   'P 1'
_cell_length_a   9.39613361
_cell_length_b   9.39613345
_cell_length_c   9.45257355
_cell_angle_alpha   90.00000000
_cell_angle_beta   90.00000000
_cell_angle_gamma   120.00000052
_symmetry_Int_Tables_number   1
_chemical_formula_structural   BTe3(OF5)3
_chemical_formula_sum   'B2 Te6 O6 F30'
_cell_volume   722.73494661
_cell_formula_units_Z   2
loop_
 _symmetry_equiv_pos_site_id
 _symmetry_equiv_pos_as_xyz
  1  'x, y, z'
loop_
 _atom_site_type_symbol
 _atom_site_label
 _atom_site_symmetry_multiplicity
 _atom_site_fract_x
 _atom_site_fract_y
 _atom_site_fract_z
 _atom_site_occupancy
  B  B0  1  0.66666700  0.33333300  0.75000000  1
  B  B1  1  0.33333300  0.66666700  0.25000000  1
  Te  Te2  1  0.64320810  0.99838866  0.25000000  1
  Te  Te3  1  0.64481944  0.64320810  0.75000000  1
  Te  Te4  1  0.99838866  0.35518056  0.75000000  1
  Te  Te5  1  0.35518056  0.35679190  0.25000000  1
  Te  Te6  1  0.35679190  0.00161134  0.75000000  1
  Te  Te7  1  0.00161134  0.64481944  0.25000000  1
  O  O8  1  0.58694223  0.16380782  0.75000000  1
  O  O9  1  0.41305777  0.83619218  0.25000000  1
  O  O10  1  0.16380782  0.57686559  0.25000000  1
  O  O11  1  0.83619218  0.42313441  0.75000000  1
  O  O12  1  0.42313441  0.58694223  0.25000000  1
  O  O13  1  0.57686559  0.41305777  0.75000000  1
  F  F14  1  0.19864091  0.30928720  0.10826550  1
  F  F15  1  0.88935371  0.19864091  0.60826550  1
  F  F16  1  0.11530145  0.51352437  0.88809102  1
  F  F17  1  0.60177707  0.11530145  0.11190898  1
  F  F18  1  0.39822293  0.88469855  0.88809102  1
  F  F19  1  0.69071280  0.88935371  0.10826550  1
  F  F20  1  0.11530145  0.51352437  0.61190898  1
  F  F21  1  0.83759869  0.70161835  0.25000000  1
  F  F22  1  0.60177707  0.11530145  0.38809102  1
  F  F23  1  0.48647563  0.60177707  0.61190898  1
  F  F24  1  0.13598034  0.83759869  0.75000000  1
  F  F25  1  0.29838165  0.13598034  0.25000000  1
  F  F26  1  0.51352437  0.39822293  0.38809102  1
  F  F27  1  0.70161835  0.86401966  0.75000000  1
  F  F28  1  0.30928720  0.11064629  0.60826550  1
  F  F29  1  0.80135909  0.69071280  0.60826550  1
  F  F30  1  0.80135909  0.69071280  0.89173450  1
  F  F31  1  0.30928720  0.11064629  0.89173450  1
  F  F32  1  0.19864091  0.30928720  0.39173450  1
  F  F33  1  0.11064629  0.80135909  0.10826550  1
  F  F34  1  0.11064629  0.80135909  0.39173450  1
  F  F35  1  0.86401966  0.16240131  0.25000000  1
  F  F36  1  0.48647563  0.60177707  0.88809102  1
  F  F37  1  0.39822293  0.88469855  0.61190898  1
  F  F38  1  0.16240131  0.29838165  0.75000000  1
  F  F39  1  0.69071280  0.88935371  0.39173450  1
  F  F40  1  0.88469855  0.48647563  0.11190898  1
  F  F41  1  0.88469855  0.48647563  0.38809102  1
  F  F42  1  0.51352437  0.39822293  0.11190898  1
  F  F43  1  0.88935371  0.19864091  0.89173450  1
