# generated using pymatgen
data_K2HgBr2(NO6)2
_symmetry_space_group_name_H-M   'P 1'
_cell_length_a   5.74322465
_cell_length_b   7.43096893
_cell_length_c   14.49496215
_cell_angle_alpha   90.00000000
_cell_angle_beta   90.00000000
_cell_angle_gamma   90.00000000
_symmetry_Int_Tables_number   1
_chemical_formula_structural   K2HgBr2(NO6)2
_chemical_formula_sum   'K4 Hg2 Br4 N4 O24'
_cell_volume   618.61199304
_cell_formula_units_Z   2
loop_
 _symmetry_equiv_pos_site_id
 _symmetry_equiv_pos_as_xyz
  1  'x, y, z'
loop_
 _atom_site_type_symbol
 _atom_site_label
 _atom_site_symmetry_multiplicity
 _atom_site_fract_x
 _atom_site_fract_y
 _atom_site_fract_z
 _atom_site_occupancy
  K  K0  1  0.00000000  0.75645891  0.72006031  1
  K  K1  1  0.00000000  0.24354109  0.27993969  1
  K  K2  1  0.50000000  0.25645891  0.77993969  1
  K  K3  1  0.50000000  0.74354109  0.22006031  1
  Hg  Hg4  1  0.00000000  0.00000000  0.00000000  1
  Hg  Hg5  1  0.50000000  0.50000000  0.50000000  1
  Br  Br6  1  0.00000000  0.73034956  0.38461944  1
  Br  Br7  1  0.50000000  0.76965044  0.88461944  1
  Br  Br8  1  0.00000000  0.26965044  0.61538056  1
  Br  Br9  1  0.50000000  0.23034956  0.11538056  1
  N  N10  1  0.00000000  0.36980796  0.91181990  1
  N  N11  1  0.50000000  0.13019204  0.41181990  1
  N  N12  1  0.50000000  0.86980796  0.58818010  1
  N  N13  1  0.00000000  0.63019204  0.08818010  1
  O  O14  1  0.69120848  0.79124006  0.56756326  1
  O  O15  1  0.50000000  0.98072471  0.37243021  1
  O  O16  1  0.23082902  0.58693689  0.37517859  1
  O  O17  1  0.19120848  0.70875994  0.06756326  1
  O  O18  1  0.26917098  0.91306311  0.87517859  1
  O  O19  1  0.73082902  0.91306311  0.87517859  1
  O  O20  1  0.00000000  0.83973703  0.28416505  1
  O  O21  1  0.69120848  0.20875994  0.43243674  1
  O  O22  1  0.30879152  0.20875994  0.43243674  1
  O  O23  1  0.80879152  0.29124006  0.93243674  1
  O  O24  1  0.50000000  0.01927529  0.62756979  1
  O  O25  1  0.19120848  0.29124006  0.93243674  1
  O  O26  1  0.00000000  0.51927529  0.87243021  1
  O  O27  1  0.76917098  0.41306311  0.62482141  1
  O  O28  1  0.26917098  0.08693689  0.12482141  1
  O  O29  1  0.80879152  0.70875994  0.06756326  1
  O  O30  1  0.23082902  0.41306311  0.62482141  1
  O  O31  1  0.73082902  0.08693689  0.12482141  1
  O  O32  1  0.00000000  0.16026297  0.71583495  1
  O  O33  1  0.50000000  0.33973703  0.21583495  1
  O  O34  1  0.00000000  0.48072471  0.12756979  1
  O  O35  1  0.50000000  0.66026297  0.78416505  1
  O  O36  1  0.76917098  0.58693689  0.37517859  1
  O  O37  1  0.30879152  0.79124006  0.56756326  1
