# generated using pymatgen
data_UV2O8
_symmetry_space_group_name_H-M   'P 1'
_cell_length_a   5.84925199
_cell_length_b   10.72906813
_cell_length_c   12.15782125
_cell_angle_alpha   90.00000000
_cell_angle_beta   90.00000000
_cell_angle_gamma   90.00000000
_symmetry_Int_Tables_number   1
_chemical_formula_structural   UV2O8
_chemical_formula_sum   'U4 V8 O32'
_cell_volume   762.98866916
_cell_formula_units_Z   4
loop_
 _symmetry_equiv_pos_site_id
 _symmetry_equiv_pos_as_xyz
  1  'x, y, z'
loop_
 _atom_site_type_symbol
 _atom_site_label
 _atom_site_symmetry_multiplicity
 _atom_site_fract_x
 _atom_site_fract_y
 _atom_site_fract_z
 _atom_site_occupancy
  U  U0  1  0.92927078  0.89973019  0.75000000  1
  U  U1  1  0.42927078  0.60026981  0.75000000  1
  U  U2  1  0.57072922  0.39973019  0.25000000  1
  U  U3  1  0.07072922  0.10026981  0.25000000  1
  V  V4  1  0.68484702  0.33440781  0.93065998  1
  V  V5  1  0.18484702  0.16559219  0.56934002  1
  V  V6  1  0.81515298  0.83440781  0.06934002  1
  V  V7  1  0.31515298  0.66559219  0.43065998  1
  V  V8  1  0.31515298  0.66559219  0.06934002  1
  V  V9  1  0.81515298  0.83440781  0.43065998  1
  V  V10  1  0.18484702  0.16559219  0.93065998  1
  V  V11  1  0.68484702  0.33440781  0.56934002  1
  O  O12  1  0.45543525  0.23293467  0.89113162  1
  O  O13  1  0.95543525  0.26706533  0.60886838  1
  O  O14  1  0.04456475  0.73293467  0.10886838  1
  O  O15  1  0.54456475  0.76706533  0.39113162  1
  O  O16  1  0.54456475  0.76706533  0.10886838  1
  O  O17  1  0.04456475  0.73293467  0.39113162  1
  O  O18  1  0.95543525  0.26706533  0.89113162  1
  O  O19  1  0.45543525  0.23293467  0.60886838  1
  O  O20  1  0.64729640  0.47303252  0.86638144  1
  O  O21  1  0.14729640  0.02696748  0.63361856  1
  O  O22  1  0.85270360  0.97303252  0.13361856  1
  O  O23  1  0.35270360  0.52696748  0.36638144  1
  O  O24  1  0.35270360  0.52696748  0.13361856  1
  O  O25  1  0.85270360  0.97303252  0.36638144  1
  O  O26  1  0.14729640  0.02696748  0.86638144  1
  O  O27  1  0.64729640  0.47303252  0.63361856  1
  O  O28  1  0.82322198  0.85276715  0.93156280  1
  O  O29  1  0.32322198  0.64723285  0.56843720  1
  O  O30  1  0.67677802  0.35276715  0.06843720  1
  O  O31  1  0.17677802  0.14723285  0.43156280  1
  O  O32  1  0.17677802  0.14723285  0.06843720  1
  O  O33  1  0.67677802  0.35276715  0.43156280  1
  O  O34  1  0.32322198  0.64723285  0.93156280  1
  O  O35  1  0.82322198  0.85276715  0.56843720  1
  O  O36  1  0.70498904  0.01389843  0.75000000  1
  O  O37  1  0.20498904  0.48610157  0.75000000  1
  O  O38  1  0.79501096  0.51389843  0.25000000  1
  O  O39  1  0.29501096  0.98610157  0.25000000  1
  O  O40  1  0.15458819  0.77844310  0.75000000  1
  O  O41  1  0.65458819  0.72155690  0.75000000  1
  O  O42  1  0.34541181  0.27844310  0.25000000  1
  O  O43  1  0.84541181  0.22155690  0.25000000  1
