# generated using pymatgen
data_Na5TiP2O9F
_symmetry_space_group_name_H-M   'P 1'
_cell_length_a   11.13887007
_cell_length_b   11.87026806
_cell_length_c   13.83084842
_cell_angle_alpha   90.00000000
_cell_angle_beta   90.00000000
_cell_angle_gamma   90.00000000
_symmetry_Int_Tables_number   1
_chemical_formula_structural   Na5TiP2O9F
_chemical_formula_sum   'Na40 Ti8 P16 O72 F8'
_cell_volume   1828.73377637
_cell_formula_units_Z   8
loop_
 _symmetry_equiv_pos_site_id
 _symmetry_equiv_pos_as_xyz
  1  'x, y, z'
loop_
 _atom_site_type_symbol
 _atom_site_label
 _atom_site_symmetry_multiplicity
 _atom_site_fract_x
 _atom_site_fract_y
 _atom_site_fract_z
 _atom_site_occupancy
  Na  Na0  1  0.74758313  0.33824549  0.24408324  1
  Na  Na1  1  0.25241687  0.16175451  0.74408324  1
  Na  Na2  1  0.24170692  0.66754423  0.99783571  1
  Na  Na3  1  0.24758313  0.66175451  0.25591676  1
  Na  Na4  1  0.51246780  0.24976413  0.12516989  1
  Na  Na5  1  0.75829308  0.33245577  0.00216429  1
  Na  Na6  1  0.50000000  0.00000000  0.00000000  1
  Na  Na7  1  0.24719086  0.42263015  0.87542555  1
  Na  Na8  1  0.24170692  0.16754423  0.50216429  1
  Na  Na9  1  0.98753220  0.24976413  0.62516989  1
  Na  Na10  1  0.48753220  0.25023587  0.62516989  1
  Na  Na11  1  0.75241687  0.33824549  0.74408324  1
  Na  Na12  1  0.50000000  0.50000000  0.00000000  1
  Na  Na13  1  0.25829308  0.66754423  0.49783571  1
  Na  Na14  1  0.48753220  0.75023587  0.87483011  1
  Na  Na15  1  0.75280914  0.07736985  0.37542555  1
  Na  Na16  1  0.74719086  0.57736985  0.62457445  1
  Na  Na17  1  0.01246780  0.75023587  0.37483011  1
  Na  Na18  1  0.74758313  0.83824549  0.25591676  1
  Na  Na19  1  0.74170692  0.33245577  0.50216429  1
  Na  Na20  1  0.00000000  0.00000000  0.50000000  1
  Na  Na21  1  0.74170692  0.83245577  0.99783571  1
  Na  Na22  1  0.24758313  0.16175451  0.24408324  1
  Na  Na23  1  0.74719086  0.07736985  0.87542555  1
  Na  Na24  1  0.25280914  0.42263015  0.37542555  1
  Na  Na25  1  0.75280914  0.57736985  0.12457445  1
  Na  Na26  1  0.01246780  0.25023587  0.12516989  1
  Na  Na27  1  0.51246780  0.74976413  0.37483011  1
  Na  Na28  1  0.00000000  0.50000000  0.00000000  1
  Na  Na29  1  0.00000000  0.50000000  0.50000000  1
  Na  Na30  1  0.50000000  0.00000000  0.50000000  1
  Na  Na31  1  0.50000000  0.50000000  0.50000000  1
  Na  Na32  1  0.25241687  0.66175451  0.75591676  1
  Na  Na33  1  0.75241687  0.83824549  0.75591676  1
  Na  Na34  1  0.25280914  0.92263015  0.12457445  1
  Na  Na35  1  0.25829308  0.16754423  0.00216429  1
  Na  Na36  1  0.00000000  0.00000000  0.00000000  1
  Na  Na37  1  0.24719086  0.92263015  0.62457445  1
  Na  Na38  1  0.98753220  0.74976413  0.87483011  1
  Na  Na39  1  0.75829308  0.83245577  0.49783571  1
  Ti  Ti40  1  0.48681159  0.00254840  0.73573900  1
  Ti  Ti41  1  0.51318841  0.49745160  0.23573900  1
  Ti  Ti42  1  0.48681159  0.50254840  0.76426100  1
  Ti  Ti43  1  0.98681159  0.99745160  0.76426100  1
  Ti  Ti44  1  0.01318841  0.50254840  0.26426100  1
  Ti  Ti45  1  0.98681159  0.49745160  0.73573900  1
  Ti  Ti46  1  0.01318841  0.00254840  0.23573900  1
  Ti  Ti47  1  0.51318841  0.99745160  0.26426100  1
  P  P48  1  0.51447541  0.74459066  0.62931006  1
  P  P49  1  0.98552459  0.74459066  0.12931006  1
  P  P50  1  0.01447541  0.75540934  0.62931006  1
  P  P51  1  0.24893846  0.42265443  0.12688509  1
  P  P52  1  0.48552459  0.25540934  0.37068994  1
  P  P53  1  0.74893846  0.07734557  0.12688509  1
  P  P54  1  0.74893846  0.57734557  0.37311491  1
  P  P55  1  0.25106154  0.42265443  0.62688509  1
  P  P56  1  0.98552459  0.24459066  0.37068994  1
  P  P57  1  0.51447541  0.24459066  0.87068994  1
  P  P58  1  0.75106154  0.07734557  0.62688509  1
  P  P59  1  0.01447541  0.25540934  0.87068994  1
  P  P60  1  0.24893846  0.92265443  0.37311491  1
  P  P61  1  0.25106154  0.92265443  0.87311491  1
  P  P62  1  0.75106154  0.57734557  0.87311491  1
  P  P63  1  0.48552459  0.75540934  0.12931006  1
  O  O64  1  0.95872166  0.63529191  0.64997165  1
  O  O65  1  0.96319908  0.79871983  0.53326801  1
  O  O66  1  0.77001025  0.20483978  0.62749175  1
  O  O67  1  0.38663717  0.94817667  0.35720622  1
  O  O68  1  0.84762057  0.25258941  0.37106471  1
  O  O69  1  0.88663717  0.05182333  0.14279378  1
  O  O70  1  0.03680092  0.70128017  0.03326801  1
  O  O71  1  0.15237943  0.24741059  0.87106471  1
  O  O72  1  0.77001025  0.70483978  0.87250825  1
  O  O73  1  0.31794365  0.97780255  0.78433479  1
  O  O74  1  0.96319908  0.29871983  0.96673199  1
  O  O75  1  0.79176135  0.02172310  0.53275798  1
  O  O76  1  0.61336283  0.05182333  0.64279378  1
  O  O77  1  0.68205635  0.52219745  0.28433479  1
  O  O78  1  0.72998975  0.70483978  0.37250825  1
  O  O79  1  0.54127834  0.63529191  0.14997165  1
  O  O80  1  0.95872166  0.13529191  0.85002835  1
  O  O81  1  0.52719159  0.33432805  0.28456972  1
  O  O82  1  0.31794365  0.47780255  0.71566521  1
  O  O83  1  0.18205635  0.47780255  0.21566521  1
  O  O84  1  0.97280841  0.83432805  0.71543028  1
  O  O85  1  0.20823865  0.47827690  0.03275798  1
  O  O86  1  0.52719159  0.83432805  0.21543028  1
  O  O87  1  0.53680092  0.29871983  0.46673199  1
  O  O88  1  0.11336283  0.44817667  0.64279378  1
  O  O89  1  0.20823865  0.97827690  0.46724202  1
  O  O90  1  0.57046421  0.44298344  0.67352458  1
  O  O91  1  0.57046421  0.94298344  0.82647542  1
  O  O92  1  0.42953579  0.05701656  0.17352458  1
  O  O93  1  0.38663717  0.44817667  0.14279378  1
  O  O94  1  0.70823865  0.02172310  0.03275798  1
  O  O95  1  0.45872166  0.36470809  0.85002835  1
  O  O96  1  0.04127834  0.36470809  0.35002835  1
  O  O97  1  0.02719159  0.66567195  0.21543028  1
  O  O98  1  0.61336283  0.55182333  0.85720622  1
  O  O99  1  0.45872166  0.86470809  0.64997165  1
  O  O100  1  0.47280841  0.66567195  0.71543028  1
  O  O101  1  0.02719159  0.16567195  0.28456972  1
  O  O102  1  0.18205635  0.97780255  0.28433479  1
  O  O103  1  0.04127834  0.86470809  0.14997165  1
  O  O104  1  0.47280841  0.16567195  0.78456972  1
  O  O105  1  0.29176135  0.97827690  0.96724202  1
  O  O106  1  0.27001025  0.29516022  0.62749175  1
  O  O107  1  0.72998975  0.20483978  0.12749175  1
  O  O108  1  0.54127834  0.13529191  0.35002835  1
  O  O109  1  0.15237943  0.74741059  0.62893529  1
  O  O110  1  0.65237943  0.25258941  0.87106471  1
  O  O111  1  0.81794365  0.02219745  0.71566521  1
  O  O112  1  0.68205635  0.02219745  0.21566521  1
  O  O113  1  0.34762057  0.24741059  0.37106471  1
  O  O114  1  0.03680092  0.20128017  0.46673199  1
  O  O115  1  0.46319908  0.20128017  0.96673199  1
  O  O116  1  0.65237943  0.75258941  0.62893529  1
  O  O117  1  0.84762057  0.75258941  0.12893529  1
  O  O118  1  0.34762057  0.74741059  0.12893529  1
  O  O119  1  0.22998975  0.79516022  0.37250825  1
  O  O120  1  0.46319908  0.70128017  0.53326801  1
  O  O121  1  0.29176135  0.47827690  0.53275798  1
  O  O122  1  0.97280841  0.33432805  0.78456972  1
  O  O123  1  0.88663717  0.55182333  0.35720622  1
  O  O124  1  0.53680092  0.79871983  0.03326801  1
  O  O125  1  0.22998975  0.29516022  0.12749175  1
  O  O126  1  0.92953579  0.94298344  0.32647542  1
  O  O127  1  0.81794365  0.52219745  0.78433479  1
  O  O128  1  0.11336283  0.94817667  0.85720622  1
  O  O129  1  0.07046421  0.05701656  0.67352458  1
  O  O130  1  0.42953579  0.55701656  0.32647542  1
  O  O131  1  0.70823865  0.52172310  0.46724202  1
  O  O132  1  0.07046421  0.55701656  0.82647542  1
  O  O133  1  0.92953579  0.44298344  0.17352458  1
  O  O134  1  0.79176135  0.52172310  0.96724202  1
  O  O135  1  0.27001025  0.79516022  0.87250825  1
  F  F136  1  0.87744080  0.42117925  0.61484597  1
  F  F137  1  0.62255920  0.92117925  0.38515403  1
  F  F138  1  0.62255920  0.42117925  0.11484597  1
  F  F139  1  0.37744080  0.57882075  0.88515403  1
  F  F140  1  0.12255920  0.57882075  0.38515403  1
  F  F141  1  0.87744080  0.92117925  0.88515403  1
  F  F142  1  0.12255920  0.07882075  0.11484597  1
  F  F143  1  0.37744080  0.07882075  0.61484597  1
