# generated using pymatgen
data_KP2Au5S8
_symmetry_space_group_name_H-M   'P 1'
_cell_length_a   10.34632485
_cell_length_b   12.53122628
_cell_length_c   14.00171651
_cell_angle_alpha   90.00000000
_cell_angle_beta   90.00000000
_cell_angle_gamma   105.60886457
_symmetry_Int_Tables_number   1
_chemical_formula_structural   KP2Au5S8
_chemical_formula_sum   'K4 P8 Au20 S32'
_cell_volume   1748.40400288
_cell_formula_units_Z   4
loop_
 _symmetry_equiv_pos_site_id
 _symmetry_equiv_pos_as_xyz
  1  'x, y, z'
loop_
 _atom_site_type_symbol
 _atom_site_label
 _atom_site_symmetry_multiplicity
 _atom_site_fract_x
 _atom_site_fract_y
 _atom_site_fract_z
 _atom_site_occupancy
  K  K0  1  0.69438917  0.33137259  0.24751934  1
  K  K1  1  0.30561083  0.16862741  0.74751934  1
  K  K2  1  0.30561083  0.66862741  0.75248066  1
  K  K3  1  0.69438917  0.83137259  0.25248066  1
  P  P4  1  0.94457474  0.11699722  0.18424164  1
  P  P5  1  0.05542526  0.88300278  0.81575836  1
  P  P6  1  0.40465234  0.70579808  0.05721695  1
  P  P7  1  0.05542526  0.38300278  0.68424164  1
  P  P8  1  0.59534766  0.79420192  0.55721695  1
  P  P9  1  0.40465234  0.20579808  0.44278305  1
  P  P10  1  0.59534766  0.29420192  0.94278305  1
  P  P11  1  0.94457474  0.61699722  0.31575836  1
  Au  Au12  1  0.11374778  0.45167374  0.45577123  1
  Au  Au13  1  0.88625222  0.54832626  0.54422877  1
  Au  Au14  1  0.76674957  0.95942973  0.73727609  1
  Au  Au15  1  0.24296814  0.29766100  0.25527115  1
  Au  Au16  1  0.76674957  0.45942973  0.76272391  1
  Au  Au17  1  0.93948566  0.36011677  0.91082297  1
  Au  Au18  1  0.44117627  0.43066992  0.09501394  1
  Au  Au19  1  0.44117627  0.93066992  0.40498606  1
  Au  Au20  1  0.75703186  0.70233900  0.74472885  1
  Au  Au21  1  0.88625222  0.04832626  0.95577123  1
  Au  Au22  1  0.55882373  0.56933008  0.90498606  1
  Au  Au23  1  0.23325043  0.04057027  0.26272391  1
  Au  Au24  1  0.23325043  0.54057027  0.23727609  1
  Au  Au25  1  0.06051434  0.63988323  0.08917703  1
  Au  Au26  1  0.11374778  0.95167374  0.04422877  1
  Au  Au27  1  0.55882373  0.06933008  0.59501394  1
  Au  Au28  1  0.75703186  0.20233900  0.75527115  1
  Au  Au29  1  0.24296814  0.79766100  0.24472885  1
  Au  Au30  1  0.06051434  0.13988323  0.41082297  1
  Au  Au31  1  0.93948566  0.86011677  0.58917703  1
  S  S32  1  0.97779264  0.52711900  0.69238105  1
  S  S33  1  0.22089315  0.92904510  0.90197867  1
  S  S34  1  0.58894664  0.64863001  0.62663736  1
  S  S35  1  0.91850128  0.74625164  0.86742439  1
  S  S36  1  0.43361786  0.75664199  0.46674569  1
  S  S37  1  0.58894664  0.14863001  0.87336264  1
  S  S38  1  0.23278981  0.62844511  0.98542371  1
  S  S39  1  0.76721019  0.87155489  0.48542371  1
  S  S40  1  0.55343252  0.90106541  0.66825560  1
  S  S41  1  0.43361786  0.25664199  0.03325431  1
  S  S42  1  0.41105336  0.35136999  0.37336264  1
  S  S43  1  0.22089315  0.42904510  0.59802133  1
  S  S44  1  0.77910685  0.07095490  0.09802133  1
  S  S45  1  0.91850128  0.24625164  0.63257561  1
  S  S46  1  0.55343252  0.40106541  0.83174440  1
  S  S47  1  0.76721019  0.37155489  0.01457629  1
  S  S48  1  0.86886744  0.13017242  0.31845557  1
  S  S49  1  0.44656748  0.09893459  0.33174440  1
  S  S50  1  0.86886744  0.63017242  0.18154443  1
  S  S51  1  0.44656748  0.59893459  0.16825560  1
  S  S52  1  0.56638214  0.24335801  0.53325431  1
  S  S53  1  0.08149872  0.75374836  0.36742439  1
  S  S54  1  0.08149872  0.25374836  0.13257561  1
  S  S55  1  0.02220736  0.47288100  0.30761895  1
  S  S56  1  0.41105336  0.85136999  0.12663736  1
  S  S57  1  0.97779264  0.02711900  0.80761895  1
  S  S58  1  0.13113256  0.36982758  0.81845557  1
  S  S59  1  0.77910685  0.57095490  0.40197867  1
  S  S60  1  0.02220736  0.97288100  0.19238105  1
  S  S61  1  0.23278981  0.12844511  0.51457629  1
  S  S62  1  0.13113256  0.86982758  0.68154443  1
  S  S63  1  0.56638214  0.74335801  0.96674569  1
