# generated using pymatgen
data_K3ZnNCl4O3
_symmetry_space_group_name_H-M   'P 1'
_cell_length_a   9.47903091
_cell_length_b   9.86352368
_cell_length_c   12.28748747
_cell_angle_alpha   90.00000000
_cell_angle_beta   90.00000000
_cell_angle_gamma   90.00000000
_symmetry_Int_Tables_number   1
_chemical_formula_structural   K3ZnNCl4O3
_chemical_formula_sum   'K12 Zn4 N4 Cl16 O12'
_cell_volume   1148.83886430
_cell_formula_units_Z   4
loop_
 _symmetry_equiv_pos_site_id
 _symmetry_equiv_pos_as_xyz
  1  'x, y, z'
loop_
 _atom_site_type_symbol
 _atom_site_label
 _atom_site_symmetry_multiplicity
 _atom_site_fract_x
 _atom_site_fract_y
 _atom_site_fract_z
 _atom_site_occupancy
  K  K0  1  0.87627361  0.99531436  0.68311896  1
  K  K1  1  0.87627361  0.50468564  0.68311896  1
  K  K2  1  0.12372639  0.49531436  0.31688104  1
  K  K3  1  0.12372639  0.00468564  0.31688104  1
  K  K4  1  0.58092126  0.75000000  0.46149781  1
  K  K5  1  0.62372639  0.49531436  0.18311896  1
  K  K6  1  0.37627361  0.50468564  0.81688104  1
  K  K7  1  0.91907874  0.25000000  0.96149781  1
  K  K8  1  0.41907874  0.25000000  0.53850219  1
  K  K9  1  0.62372639  0.00468564  0.18311896  1
  K  K10  1  0.08092126  0.75000000  0.03850219  1
  K  K11  1  0.37627361  0.99531436  0.81688104  1
  Zn  Zn12  1  0.17945485  0.75000000  0.59224067  1
  Zn  Zn13  1  0.32054515  0.25000000  0.09224067  1
  Zn  Zn14  1  0.67945485  0.75000000  0.90775933  1
  Zn  Zn15  1  0.82054515  0.25000000  0.40775933  1
  N  N16  1  0.34295686  0.75000000  0.27110293  1
  N  N17  1  0.84295686  0.75000000  0.22889707  1
  N  N18  1  0.65704314  0.25000000  0.72889707  1
  N  N19  1  0.15704314  0.25000000  0.77110293  1
  Cl  Cl20  1  0.12777712  0.75000000  0.77565155  1
  Cl  Cl21  1  0.30709881  0.56112622  0.55056596  1
  Cl  Cl22  1  0.53173592  0.25000000  1.00209579  1
  Cl  Cl23  1  0.19290119  0.43887378  0.05056596  1
  Cl  Cl24  1  0.62777712  0.75000000  0.72434845  1
  Cl  Cl25  1  0.80709881  0.93887378  0.94943404  1
  Cl  Cl26  1  0.87222288  0.25000000  0.22434845  1
  Cl  Cl27  1  0.19290119  0.06112622  0.05056596  1
  Cl  Cl28  1  0.80709881  0.56112622  0.94943404  1
  Cl  Cl29  1  0.69290119  0.43887378  0.44943404  1
  Cl  Cl30  1  0.03173592  0.25000000  0.49790421  1
  Cl  Cl31  1  0.46826408  0.75000000  -0.00209579  1
  Cl  Cl32  1  0.37222288  0.25000000  0.27565155  1
  Cl  Cl33  1  0.96826408  0.75000000  0.50209579  1
  Cl  Cl34  1  0.69290119  0.06112622  0.44943404  1
  Cl  Cl35  1  0.30709881  0.93887378  0.55056596  1
  O  O36  1  0.40533061  0.63834126  0.28757417  1
  O  O37  1  0.59466939  0.13834126  0.71242583  1
  O  O38  1  0.40533061  0.86165874  0.28757417  1
  O  O39  1  0.71423686  0.75000000  0.25856449  1
  O  O40  1  0.28576314  0.25000000  0.74143551  1
  O  O41  1  0.78576314  0.25000000  0.75856449  1
  O  O42  1  0.09466939  0.36165874  0.78757417  1
  O  O43  1  0.09466939  0.13834126  0.78757417  1
  O  O44  1  0.90533061  0.63834126  0.21242583  1
  O  O45  1  0.59466939  0.36165874  0.71242583  1
  O  O46  1  0.21423686  0.75000000  0.24143551  1
  O  O47  1  0.90533061  0.86165874  0.21242583  1
