# generated using pymatgen
data_Zn2P2O7
_symmetry_space_group_name_H-M   'P 1'
_cell_length_a   5.02255395
_cell_length_b   13.50761625
_cell_length_c   16.67657274
_cell_angle_alpha   90.00000000
_cell_angle_beta   90.00000000
_cell_angle_gamma   90.00000000
_symmetry_Int_Tables_number   1
_chemical_formula_structural   Zn2P2O7
_chemical_formula_sum   'Zn16 P16 O56'
_cell_volume   1131.38424426
_cell_formula_units_Z   8
loop_
 _symmetry_equiv_pos_site_id
 _symmetry_equiv_pos_as_xyz
  1  'x, y, z'
loop_
 _atom_site_type_symbol
 _atom_site_label
 _atom_site_symmetry_multiplicity
 _atom_site_fract_x
 _atom_site_fract_y
 _atom_site_fract_z
 _atom_site_occupancy
  Zn  Zn0  1  0.67925641  0.75786300  0.65677690  1
  Zn  Zn1  1  0.32074359  0.25786300  0.84322310  1
  Zn  Zn2  1  0.90893501  0.54560821  0.91362042  1
  Zn  Zn3  1  0.09106499  0.45439179  0.08637958  1
  Zn  Zn4  1  0.90893501  0.54560821  0.58637958  1
  Zn  Zn5  1  0.32074359  0.25786300  0.65677690  1
  Zn  Zn6  1  0.67925641  0.75786300  0.84322310  1
  Zn  Zn7  1  0.90893501  0.95439179  0.41362042  1
  Zn  Zn8  1  0.90893501  0.95439179  0.08637958  1
  Zn  Zn9  1  0.09106499  0.04560821  0.58637958  1
  Zn  Zn10  1  0.67925641  0.74213700  0.34322310  1
  Zn  Zn11  1  0.32074359  0.24213700  0.15677690  1
  Zn  Zn12  1  0.09106499  0.45439179  0.41362042  1
  Zn  Zn13  1  0.67925641  0.74213700  0.15677690  1
  Zn  Zn14  1  0.32074359  0.24213700  0.34322310  1
  Zn  Zn15  1  0.09106499  0.04560821  0.91362042  1
  P  P16  1  0.17317337  0.84973170  0.25000000  1
  P  P17  1  0.42145618  0.85605756  0.99722663  1
  P  P18  1  0.82682663  0.34973170  0.25000000  1
  P  P19  1  0.04162006  0.44384582  0.75000000  1
  P  P20  1  0.42145618  0.64394244  0.00277337  1
  P  P21  1  0.57854382  0.14394244  0.49722663  1
  P  P22  1  0.82682663  0.15026830  0.75000000  1
  P  P23  1  0.04162006  0.05615418  0.25000000  1
  P  P24  1  0.42145618  0.85605756  0.50277337  1
  P  P25  1  0.17317337  0.65026830  0.75000000  1
  P  P26  1  0.57854382  0.14394244  0.00277337  1
  P  P27  1  0.95837994  0.94384582  0.75000000  1
  P  P28  1  0.42145618  0.64394244  0.49722663  1
  P  P29  1  0.95837994  0.55615418  0.25000000  1
  P  P30  1  0.57854382  0.35605756  0.50277337  1
  P  P31  1  0.57854382  0.35605756  0.99722663  1
  O  O32  1  0.98635051  0.16882260  0.67235094  1
  O  O33  1  0.01364949  0.66882260  0.82764906  1
  O  O34  1  0.11845519  0.95180027  0.82691211  1
  O  O35  1  0.01364949  0.83117740  0.32764906  1
  O  O36  1  0.19728711  0.93357909  0.00271310  1
  O  O37  1  0.98635051  0.33117740  0.32764906  1
  O  O38  1  0.88154481  0.45180027  0.67308789  1
  O  O39  1  0.19728711  0.93357909  0.49728690  1
  O  O40  1  0.26805520  0.75000000  0.50000000  1
  O  O41  1  0.43837775  0.79273925  0.25000000  1
  O  O42  1  0.88154481  0.45180027  0.82691211  1
  O  O43  1  0.73194480  0.25000000  0.50000000  1
  O  O44  1  0.41791503  0.13811613  0.07942108  1
  O  O45  1  0.88154481  0.04819973  0.17308789  1
  O  O46  1  0.43837775  0.70726075  0.75000000  1
  O  O47  1  0.74179756  0.03539765  0.75000000  1
  O  O48  1  0.11845519  0.54819973  0.32691211  1
  O  O49  1  0.11845519  0.95180027  0.67308789  1
  O  O50  1  0.59893889  0.85958045  0.07336925  1
  O  O51  1  0.11845519  0.54819973  0.17308789  1
  O  O52  1  0.01364949  0.66882260  0.67235094  1
  O  O53  1  0.98635051  0.16882260  0.82764906  1
  O  O54  1  0.59893889  0.64041955  0.92663075  1
  O  O55  1  0.80271289  0.06642091  0.50271310  1
  O  O56  1  0.40106111  0.35958045  0.07336925  1
  O  O57  1  0.73194480  0.25000000  0.00000000  1
  O  O58  1  0.41791503  0.13811613  0.42057892  1
  O  O59  1  0.41791503  0.36188387  0.57942108  1
  O  O60  1  0.59893889  0.85958045  0.42663075  1
  O  O61  1  0.56162225  0.29273925  0.25000000  1
  O  O62  1  0.80271289  0.43357909  0.00271310  1
  O  O63  1  0.19728711  0.56642091  0.50271310  1
  O  O64  1  0.58208497  0.86188387  0.57942108  1
  O  O65  1  0.40106111  0.35958045  0.42663075  1
  O  O66  1  0.25820244  0.53539765  0.75000000  1
  O  O67  1  0.80271289  0.43357909  0.49728690  1
  O  O68  1  0.40106111  0.14041955  0.57336925  1
  O  O69  1  0.58208497  0.63811613  0.42057892  1
  O  O70  1  0.58208497  0.63811613  0.07942108  1
  O  O71  1  0.21219834  0.34910956  0.75000000  1
  O  O72  1  0.56162225  0.20726075  0.75000000  1
  O  O73  1  0.98635051  0.33117740  0.17235094  1
  O  O74  1  0.78780166  0.84910956  0.75000000  1
  O  O75  1  0.26805520  0.75000000  0.00000000  1
  O  O76  1  0.01364949  0.83117740  0.17235094  1
  O  O77  1  0.88154481  0.04819973  0.32691211  1
  O  O78  1  0.40106111  0.14041955  0.92663075  1
  O  O79  1  0.58208497  0.86188387  0.92057892  1
  O  O80  1  0.19728711  0.56642091  0.99728690  1
  O  O81  1  0.78780166  0.65089044  0.25000000  1
  O  O82  1  0.25820244  0.96460235  0.25000000  1
  O  O83  1  0.21219834  0.15089044  0.25000000  1
  O  O84  1  0.74179756  0.46460235  0.25000000  1
  O  O85  1  0.41791503  0.36188387  0.92057892  1
  O  O86  1  0.80271289  0.06642091  0.99728690  1
  O  O87  1  0.59893889  0.64041955  0.57336925  1
