# generated using pymatgen
data_Dy(IO3)3
_symmetry_space_group_name_H-M   'P 1'
_cell_length_a   6.13014183
_cell_length_b   8.80772515
_cell_length_c   15.30764169
_cell_angle_alpha   96.73979663
_cell_angle_beta   90.00000000
_cell_angle_gamma   90.00000000
_symmetry_Int_Tables_number   1
_chemical_formula_structural   Dy(IO3)3
_chemical_formula_sum   'Dy4 I12 O36'
_cell_volume   820.78781171
_cell_formula_units_Z   4
loop_
 _symmetry_equiv_pos_site_id
 _symmetry_equiv_pos_as_xyz
  1  'x, y, z'
loop_
 _atom_site_type_symbol
 _atom_site_label
 _atom_site_symmetry_multiplicity
 _atom_site_fract_x
 _atom_site_fract_y
 _atom_site_fract_z
 _atom_site_occupancy
  Dy  Dy0  1  0.21337594  0.04269088  0.89537289  1
  Dy  Dy1  1  0.28662406  0.54269088  0.39537289  1
  Dy  Dy2  1  0.71337594  0.45730912  0.60462711  1
  Dy  Dy3  1  0.78662406  0.95730912  0.10462711  1
  I  I4  1  0.18803929  0.71470184  0.64186394  1
  I  I5  1  0.90572563  0.11612588  0.69786692  1
  I  I6  1  0.40572563  0.38387412  0.80213308  1
  I  I7  1  0.31196071  0.21470184  0.14186394  1
  I  I8  1  0.85558027  0.33470195  0.98010893  1
  I  I9  1  0.68803929  0.78529816  0.85813606  1
  I  I10  1  0.64441973  0.83470195  0.48010893  1
  I  I11  1  0.09427437  0.88387412  0.30213308  1
  I  I12  1  0.14441973  0.66529805  0.01989107  1
  I  I13  1  0.35558027  0.16529805  0.51989107  1
  I  I14  1  0.59427437  0.61612588  0.19786692  1
  I  I15  1  0.81196071  0.28529816  0.35813606  1
  O  O16  1  0.47231129  0.77392852  0.38336292  1
  O  O17  1  0.62422122  0.64033804  0.51473241  1
  O  O18  1  0.94602827  0.62720008  0.68687318  1
  O  O19  1  0.32281087  0.58885157  0.24449103  1
  O  O20  1  0.57146846  0.08737531  0.44113778  1
  O  O21  1  0.01113282  0.72820525  0.36570142  1
  O  O22  1  0.92853154  0.58737531  0.94113778  1
  O  O23  1  0.10540957  0.07435477  0.17003397  1
  O  O24  1  0.82281087  0.91114843  0.25550897  1
  O  O25  1  0.17718913  0.08885157  0.74449103  1
  O  O26  1  0.42853154  0.91262469  0.55886222  1
  O  O27  1  0.91689108  0.95203018  0.61188593  1
  O  O28  1  0.62828406  0.85690183  0.97210574  1
  O  O29  1  0.48886718  0.22820525  0.86570142  1
  O  O30  1  0.87577878  0.14033804  0.01473241  1
  O  O31  1  0.87171594  0.35690183  0.47210574  1
  O  O32  1  0.98886718  0.27179475  0.63429858  1
  O  O33  1  0.37171594  0.14309817  0.02789426  1
  O  O34  1  0.44602827  0.87279992  0.81312682  1
  O  O35  1  0.39459043  0.57435477  0.67003397  1
  O  O36  1  0.37577878  0.35966196  0.48526759  1
  O  O37  1  0.41689108  0.54796982  0.88811407  1
  O  O38  1  0.12422122  0.85966196  0.98526759  1
  O  O39  1  0.08310892  0.04796982  0.38811407  1
  O  O40  1  0.07146846  0.41262469  0.05886222  1
  O  O41  1  0.97231129  0.72607148  0.11663708  1
  O  O42  1  0.60540957  0.42564523  0.32996603  1
  O  O43  1  0.58310892  0.45203018  0.11188593  1
  O  O44  1  0.89459043  0.92564523  0.82996603  1
  O  O45  1  0.67718913  0.41114843  0.75550897  1
  O  O46  1  0.05397173  0.37279992  0.31312682  1
  O  O47  1  0.52768871  0.22607148  0.61663708  1
  O  O48  1  0.12828406  0.64309817  0.52789426  1
  O  O49  1  0.55397173  0.12720008  0.18687318  1
  O  O50  1  0.51113282  0.77179475  0.13429858  1
  O  O51  1  0.02768871  0.27392852  0.88336292  1
