# generated using pymatgen
data_Sm9(SbO)5
_symmetry_space_group_name_H-M   'P 1'
_cell_length_a   9.10737616
_cell_length_b   10.11498757
_cell_length_c   10.11498757
_cell_angle_alpha   90.00000000
_cell_angle_beta   90.00000000
_cell_angle_gamma   90.00000000
_symmetry_Int_Tables_number   1
_chemical_formula_structural   Sm9(SbO)5
_chemical_formula_sum   'Sm18 Sb10 O10'
_cell_volume   931.80273609
_cell_formula_units_Z   2
loop_
 _symmetry_equiv_pos_site_id
 _symmetry_equiv_pos_as_xyz
  1  'x, y, z'
loop_
 _atom_site_type_symbol
 _atom_site_label
 _atom_site_symmetry_multiplicity
 _atom_site_fract_x
 _atom_site_fract_y
 _atom_site_fract_z
 _atom_site_occupancy
  Sm  Sm0  1  0.00138813  0.83203582  0.52379753  1
  Sm  Sm1  1  0.65676647  0.14595439  0.95472864  1
  Sm  Sm2  1  0.65676647  0.35404561  0.54527136  1
  Sm  Sm3  1  0.99861187  0.16796418  0.47620247  1
  Sm  Sm4  1  0.34323353  0.04527136  0.64595439  1
  Sm  Sm5  1  0.34323353  0.45472864  0.85404561  1
  Sm  Sm6  1  0.00138813  0.97620247  0.83203582  1
  Sm  Sm7  1  0.34323353  0.85404561  0.04527136  1
  Sm  Sm8  1  0.99861187  0.47620247  0.33203582  1
  Sm  Sm9  1  0.65676647  0.95472864  0.35404561  1
  Sm  Sm10  1  0.99861187  0.02379753  0.16796418  1
  Sm  Sm11  1  0.34323353  0.64595439  0.45472864  1
  Sm  Sm12  1  0.66998490  0.75000000  0.75000000  1
  Sm  Sm13  1  0.00138813  0.52379753  0.66796418  1
  Sm  Sm14  1  0.99861187  0.33203582  0.02379753  1
  Sm  Sm15  1  0.33001510  0.25000000  0.25000000  1
  Sm  Sm16  1  0.65676647  0.54527136  0.14595439  1
  Sm  Sm17  1  0.00138813  0.66796418  0.97620247  1
  Sb  Sb18  1  0.30065654  0.34629558  0.55373625  1
  Sb  Sb19  1  0.30065654  0.15370442  0.94626375  1
  Sb  Sb20  1  0.30065654  0.55373625  0.15370442  1
  Sb  Sb21  1  0.69934346  0.05373625  0.65370442  1
  Sb  Sb22  1  0.30065654  0.94626375  0.34629558  1
  Sb  Sb23  1  0.31624902  0.75000000  0.75000000  1
  Sb  Sb24  1  0.69934346  0.84629558  0.05373625  1
  Sb  Sb25  1  0.68375098  0.25000000  0.25000000  1
  Sb  Sb26  1  0.69934346  0.44626375  0.84629558  1
  Sb  Sb27  1  0.69934346  0.65370442  0.44626375  1
  O  O28  1  0.08856244  0.02525684  0.62957707  1
  O  O29  1  0.91143756  0.12957707  0.97474316  1
  O  O30  1  0.08856244  0.47474316  0.87042293  1
  O  O31  1  0.91143756  0.37042293  0.52525684  1
  O  O32  1  0.08856244  0.62957707  0.47474316  1
  O  O33  1  0.91143756  0.52525684  0.12957707  1
  O  O34  1  0.06581054  0.25000000  0.25000000  1
  O  O35  1  0.91143756  0.97474316  0.37042293  1
  O  O36  1  0.93418946  0.75000000  0.75000000  1
  O  O37  1  0.08856244  0.87042293  0.02525684  1
