# generated using pymatgen
data_Rb4Te8O23
_symmetry_space_group_name_H-M   'P 1'
_cell_length_a   7.42633947
_cell_length_b   14.93949001
_cell_length_c   20.32617960
_cell_angle_alpha   89.99998300
_cell_angle_beta   89.99999495
_cell_angle_gamma   89.99999000
_symmetry_Int_Tables_number   1
_chemical_formula_structural   Rb4Te8O23
_chemical_formula_sum   'Rb16 Te32 O92'
_cell_volume   2255.10271844
_cell_formula_units_Z   4
loop_
 _symmetry_equiv_pos_site_id
 _symmetry_equiv_pos_as_xyz
  1  'x, y, z'
loop_
 _atom_site_type_symbol
 _atom_site_label
 _atom_site_symmetry_multiplicity
 _atom_site_fract_x
 _atom_site_fract_y
 _atom_site_fract_z
 _atom_site_occupancy
  Rb  Rb0  1  0.12174032  0.25091678  0.07161756  1
  Rb  Rb1  1  0.62131212  0.50575687  0.31354185  1
  Rb  Rb2  1  0.62174087  0.75091668  0.42838280  1
  Rb  Rb3  1  0.12066033  0.50267290  0.17439315  1
  Rb  Rb4  1  0.12131135  0.49424310  0.68645818  1
  Rb  Rb5  1  0.12065983  0.99732717  0.67439312  1
  Rb  Rb6  1  0.12137390  0.75722096  0.06282265  1
  Rb  Rb7  1  0.62137386  0.24277883  0.93717744  1
  Rb  Rb8  1  0.62065891  0.00267334  0.32560715  1
  Rb  Rb9  1  0.12131173  0.00575730  0.18645831  1
  Rb  Rb10  1  0.12137361  0.74277883  0.56282269  1
  Rb  Rb11  1  0.62174053  0.74908323  0.92838258  1
  Rb  Rb12  1  0.62065933  0.49732684  0.82560687  1
  Rb  Rb13  1  0.12174055  0.24908329  0.57161738  1
  Rb  Rb14  1  0.62137359  0.25722118  0.43717732  1
  Rb  Rb15  1  0.62131214  0.99424314  0.81354184  1
  Te  Te16  1  0.86992531  0.00000934  0.49994561  1
  Te  Te17  1  0.62041034  0.38197783  0.12864110  1
  Te  Te18  1  0.62092490  0.12332757  0.13508791  1
  Te  Te19  1  0.62014303  0.62828399  0.12238850  1
  Te  Te20  1  0.12014269  0.12828395  0.37761136  1
  Te  Te21  1  0.62092517  0.37667278  0.63508801  1
  Te  Te22  1  0.12092536  0.62332734  0.36491184  1
  Te  Te23  1  0.62091175  0.87243580  0.10787419  1
  Te  Te24  1  0.87118397  0.00001709  0.00005472  1
  Te  Te25  1  0.12091106  0.37243569  0.39212548  1
  Te  Te26  1  0.36992557  0.50000927  0.00005420  1
  Te  Te27  1  0.37066313  0.76124549  0.24386109  1
  Te  Te28  1  0.12041005  0.61802203  0.87135900  1
  Te  Te29  1  0.37118414  0.50001697  0.49994531  1
  Te  Te30  1  0.87118408  0.49998287  0.50005457  1
  Te  Te31  1  0.87066373  0.23875452  0.75613952  1
  Te  Te32  1  0.12091087  0.12756429  0.89212576  1
  Te  Te33  1  0.12014252  0.37171595  0.87761131  1
  Te  Te34  1  0.37048977  0.26094306  0.25621405  1
  Te  Te35  1  0.12092487  0.87667282  0.86491205  1
  Te  Te36  1  0.37049019  0.23905685  0.75621409  1
  Te  Te37  1  0.37118398  0.99998293  0.99994536  1
  Te  Te38  1  0.12041056  0.88197791  0.37135887  1
  Te  Te39  1  0.87066414  0.26124566  0.25613958  1
  Te  Te40  1  0.87048979  0.76094325  0.24378602  1
  Te  Te41  1  0.87048977  0.73905650  0.74378596  1
  Te  Te42  1  0.62091104  0.62756414  0.60787416  1
  Te  Te43  1  0.86992575  0.49999056  0.99994573  1
  Te  Te44  1  0.36992546  -0.00000938  0.50005418  1
  Te  Te45  1  0.62014256  0.87171603  0.62238858  1
  Te  Te46  1  0.62041057  0.11802201  0.62864099  1
  Te  Te47  1  0.37066414  0.73875386  0.74386045  1
  O  O48  1  0.12067998  0.72984742  0.21721133  1
  O  O49  1  0.93204962  0.15502505  0.31324431  1
  O  O50  1  0.62019239  0.74739868  0.08082890  1
  O  O51  1  0.36191977  0.67924068  0.31576084  1
  O  O52  1  0.80895956  0.84516453  0.68653725  1
  O  O53  1  0.80602664  0.13571962  0.70135098  1
  O  O54  1  0.12068039  0.77015213  0.71721149  1
  O  O55  1  0.30602597  0.86427973  0.29864869  1
  O  O56  1  0.42048432  0.04878175  0.08679229  1
  O  O57  1  0.36192018  0.82075948  0.81576129  1
  O  O58  1  0.12019234  0.25260131  0.91917108  1
  O  O59  1  0.92048414  0.54878170  0.41320796  1
  O  O60  1  0.93501249  0.63614075  0.79864446  1
  O  O61  1  0.31031344  0.39616956  0.94126284  1
  O  O62  1  0.61985466  0.50847483  0.16126215  1
  O  O63  1  0.30895992  0.15483551  0.31346270  1
  O  O64  1  0.88759494  0.42259458  0.07354645  1
  O  O65  1  0.11985454  0.49152500  0.83873790  1
  O  O66  1  0.35367007  0.16052961  0.83036948  1
  O  O67  1  0.12119330  0.52585137  0.53154056  1
  O  O68  1  0.81031397  0.89616948  0.55873727  1
  O  O69  1  0.81031363  0.60383067  0.05873739  1
  O  O70  1  0.82187444  0.45106597  0.58687390  1
  O  O71  1  0.62067998  0.22984755  0.28278850  1
  O  O72  1  0.12028518  0.77707628  0.91973992  1
  O  O73  1  0.35241824  0.42255240  0.07362261  1
  O  O74  1  0.93205026  0.34497487  0.81324440  1
  O  O75  1  0.62019231  0.75260155  0.58082901  1
  O  O76  1  0.62028552  0.27707601  0.58025972  1
  O  O77  1  0.32187493  0.54893401  0.41312624  1
  O  O78  1  0.37945231  0.17864973  0.18450082  1
  O  O79  1  0.30829895  0.38061995  0.46760705  1
  O  O80  1  0.80829953  0.88062018  0.03239280  1
  O  O81  1  0.43501241  0.13614073  0.70135566  1
  O  O82  1  0.38776705  0.83980760  0.16975869  1
  O  O83  1  0.80895936  0.65483534  0.18653721  1
  O  O84  1  0.88776681  0.16019252  0.83024089  1
  O  O85  1  0.43204967  0.65502515  0.18675551  1
  O  O86  1  0.62067510  0.70986475  0.76948860  1
  O  O87  1  0.30895986  0.34516450  0.81346262  1
  O  O88  1  0.30829926  0.11937988  0.96760715  1
  O  O89  1  0.88776706  0.33980743  0.33024094  1
  O  O90  1  0.92048402  0.95121792  0.91320768  1
  O  O91  1  0.92915674  0.10383231  0.44101941  1
  O  O92  1  0.82187460  0.04893389  0.08687376  1
  O  O93  1  0.61985475  0.99152494  0.66126215  1
  O  O94  1  0.62119374  0.47414865  0.46845946  1
  O  O95  1  0.42915718  0.60383221  0.05898073  1
  O  O96  1  0.42048459  0.45121815  0.58679229  1
  O  O97  1  0.37945233  0.32135025  0.68450086  1
  O  O98  1  0.62067932  0.27015235  0.78278862  1
  O  O99  1  0.11991785  0.95719901  0.51161043  1
  O  O100  1  0.62119354  0.02585135  0.96845941  1
  O  O101  1  0.85366993  0.66052981  0.66963054  1
  O  O102  1  0.80829915  0.61938018  0.53239290  1
  O  O103  1  0.61991745  0.45719934  0.98838964  1
  O  O104  1  0.38776701  0.66019297  0.66975948  1
  O  O105  1  0.11991804  0.54280060  0.01161029  1
  O  O106  1  0.43405778  0.88060879  0.03222801  1
  O  O107  1  0.80602658  0.36428040  0.20135081  1
  O  O108  1  0.85241804  0.57744739  0.92637744  1
  O  O109  1  0.87945227  0.82135057  0.81549916  1
  O  O110  1  0.93405777  0.11939094  0.96777177  1
  O  O111  1  0.11985433  0.00847483  0.33873789  1
  O  O112  1  0.35241805  0.07744769  0.57362254  1
  O  O113  1  0.93405769  0.38060904  0.46777196  1
  O  O114  1  0.88759504  0.07740561  0.57354639  1
  O  O115  1  0.42915638  0.89616776  0.55898045  1
  O  O116  1  0.86191986  0.17924042  0.18423878  1
  O  O117  1  0.31031407  0.10383059  0.44126280  1
  O  O118  1  0.38759486  0.92259434  0.42645351  1
  O  O119  1  0.43501251  0.36385971  0.20135538  1
  O  O120  1  0.35366933  0.33947025  0.33036948  1
  O  O121  1  0.12019254  0.24739876  0.41917107  1
  O  O122  1  0.86192007  0.32075938  0.68423877  1
  O  O123  1  0.61991777  0.04280080  0.48838981  1
  O  O124  1  0.85366954  0.83947026  0.16963042  1
  O  O125  1  0.62067432  0.79013530  0.26948834  1
  O  O126  1  0.12067416  0.29013540  0.23051139  1
  O  O127  1  0.62028509  0.22292400  0.08026002  1
  O  O128  1  0.85241803  0.92255263  0.42637748  1
  O  O129  1  0.12067528  0.20986459  0.73051128  1
  O  O130  1  0.38759528  0.57740558  0.92645354  1
  O  O131  1  0.92915695  0.39616781  0.94101936  1
  O  O132  1  0.12028496  0.72292393  0.41974012  1
  O  O133  1  0.32187469  0.95106585  0.91312634  1
  O  O134  1  0.43405766  0.61939128  0.53222808  1
  O  O135  1  0.12119417  0.97414878  0.03154042  1
  O  O136  1  0.30602575  0.63572018  0.79864899  1
  O  O137  1  0.87945201  0.67864969  0.31549910  1
  O  O138  1  0.93501316  0.86385942  0.29864451  1
  O  O139  1  0.43205005  0.84497487  0.68675565  1
