# generated using pymatgen
data_Ba17Er16Zn8Pt4O57
_symmetry_space_group_name_H-M   'P 1'
_cell_length_a   5.74097794
_cell_length_b   16.53423770
_cell_length_c   16.53423784
_cell_angle_alpha   88.27284261
_cell_angle_beta   80.00228953
_cell_angle_gamma   80.00228989
_symmetry_Int_Tables_number   1
_chemical_formula_structural   Ba17Er16Zn8Pt4O57
_chemical_formula_sum   'Ba17 Er16 Zn8 Pt4 O57'
_cell_volume   1522.17040208
_cell_formula_units_Z   1
loop_
 _symmetry_equiv_pos_site_id
 _symmetry_equiv_pos_as_xyz
  1  'x, y, z'
loop_
 _atom_site_type_symbol
 _atom_site_label
 _atom_site_symmetry_multiplicity
 _atom_site_fract_x
 _atom_site_fract_y
 _atom_site_fract_z
 _atom_site_occupancy
  Ba  Ba0  1  0.26789587  0.54302373  0.92118453  1
  Ba  Ba1  1  0.73210413  0.45697627  0.07881547  1
  Ba  Ba2  1  0.18908040  0.07881547  0.54302373  1
  Ba  Ba3  1  0.06760494  0.49056339  0.37422673  1
  Ba  Ba4  1  0.93239506  0.50943661  0.62577327  1
  Ba  Ba5  1  0.88833098  0.38756221  0.83577582  1
  Ba  Ba6  1  0.34277062  0.00758061  0.30687814  1
  Ba  Ba7  1  0.64964877  0.69312186  0.00758061  1
  Ba  Ba8  1  0.27589320  0.83577582  0.61243779  1
  Ba  Ba9  1  0.55816833  0.37422673  0.50943661  1
  Ba  Ba10  1  0.72410680  0.16422418  0.38756221  1
  Ba  Ba11  1  0.35035123  0.30687814  0.99241939  1
  Ba  Ba12  1  0.44183167  0.62577327  0.49056339  1
  Ba  Ba13  1  0.65722938  0.99241939  0.69312186  1
  Ba  Ba14  1  0.00000000  0.00000000  0.00000000  1
  Ba  Ba15  1  0.81091960  0.92118453  0.45697627  1
  Ba  Ba16  1  0.11166902  0.61243779  0.16422418  1
  Er  Er17  1  0.25102713  0.24266230  0.25528344  1
  Er  Er18  1  0.59936898  0.91226493  0.88899712  1
  Er  Er19  1  0.49368943  0.25528344  0.75733770  1
  Er  Er20  1  0.32560813  0.62474758  0.72403616  1
  Er  Er21  1  0.95035571  0.72403616  0.37525242  1
  Er  Er22  1  0.51163391  0.88899712  0.08773507  1
  Er  Er23  1  0.50631057  0.74471656  0.24266230  1
  Er  Er24  1  0.05198345  0.11988860  0.77614450  1
  Er  Er25  1  0.04964429  0.27596384  0.62474758  1
  Er  Er26  1  0.74897287  0.75733770  0.74471656  1
  Er  Er27  1  0.94801655  0.88011140  0.22385550  1
  Er  Er28  1  0.67439187  0.37525242  0.27596384  1
  Er  Er29  1  0.82812795  0.22385550  0.11988860  1
  Er  Er30  1  0.40063102  0.08773507  0.11100288  1
  Er  Er31  1  0.48836609  0.11100288  0.91226493  1
  Er  Er32  1  0.17187205  0.77614450  0.88011140  1
  Zn  Zn33  1  0.78793409  0.59171576  0.83241606  1
  Zn  Zn34  1  0.07551521  0.79162253  0.05734706  1
  Zn  Zn35  1  0.86713774  0.05734706  0.20837747  1
  Zn  Zn36  1  0.92448479  0.20837747  0.94265294  1
  Zn  Zn37  1  0.21206591  0.40828424  0.16758394  1
  Zn  Zn38  1  0.13286226  0.94265294  0.79162253  1
  Zn  Zn39  1  0.62035015  0.16758394  0.59171576  1
  Zn  Zn40  1  0.37964985  0.83241606  0.40828424  1
  Pt  Pt41  1  0.85561797  0.72697212  0.56179194  1
  Pt  Pt42  1  0.58259009  0.56179194  0.27302788  1
  Pt  Pt43  1  0.41740991  0.43820806  0.72697212  1
  Pt  Pt44  1  0.14438203  0.27302788  0.43820806  1
  O  O45  1  0.83835154  0.84550031  0.97497579  1
  O  O46  1  0.59897524  0.52144435  0.76720586  1
  O  O47  1  0.82337217  0.17621794  0.68174385  1
  O  O48  1  0.23165319  0.16093706  0.37575655  1
  O  O49  1  0.49488397  0.68174385  0.82378206  1
  O  O50  1  0.40980143  0.31040491  0.35352283  1
  O  O51  1  0.18667268  0.97497579  0.15449969  1
  O  O52  1  0.17662783  0.82378206  0.31825615  1
  O  O53  1  0.84154989  0.00071257  0.31618764  1
  O  O54  1  0.88762545  0.47855565  0.23279414  1
  O  O55  1  0.07452357  0.14801402  0.20283427  1
  O  O56  1  0.81332732  0.02502421  0.84550031  1
  O  O57  1  0.39259025  0.37575655  0.83906294  1
  O  O58  1  0.31866603  0.17621794  0.68174385  1
  O  O59  1  0.68133397  0.82378206  0.31825615  1
  O  O60  1  0.99959012  0.68174385  0.82378206  1
  O  O61  1  0.07372918  0.68959509  0.64647717  1
  O  O62  1  0.65882763  0.15449969  0.02502421  1
  O  O63  1  0.92547643  0.85198598  0.79716573  1
  O  O64  1  0.50511603  0.31825615  0.17621794  1
  O  O65  1  0.72020635  0.35352283  0.68959509  1
  O  O66  1  0.11237455  0.52144435  0.76720586  1
  O  O67  1  0.34117237  0.84550031  0.97497579  1
  O  O68  1  0.68385184  0.97497579  0.15449969  1
  O  O69  1  0.12041958  0.76720586  0.47855565  1
  O  O70  1  0.76058467  0.53849437  0.94033628  1
  O  O71  1  0.63381890  0.76720586  0.47855565  1
  O  O72  1  0.94533014  0.61943805  0.48990167  1
  O  O73  1  0.15773754  0.68381236  0.00071257  1
  O  O74  1  0.56476819  0.48990167  0.38056195  1
  O  O75  1  0.72264216  0.20283427  0.85198598  1
  O  O76  1  0.50000000  0.00000000  0.00000000  1
  O  O77  1  0.16164846  0.15449969  0.02502421  1
  O  O78  1  0.87958042  0.23279414  0.52144435  1
  O  O79  1  0.84226246  0.31618764  0.99928743  1
  O  O80  1  0.36618110  0.23279414  0.52144435  1
  O  O81  1  0.57462813  0.14801402  0.20283427  1
  O  O82  1  0.23941533  0.46150563  0.05966372  1
  O  O83  1  0.60740975  0.62424345  0.16093706  1
  O  O84  1  0.92627082  0.31040491  0.35352283  1
  O  O85  1  0.76332427  0.64647717  0.31040491  1
  O  O86  1  0.15845011  0.99928743  0.68381236  1
  O  O87  1  0.31614816  0.02502421  0.84550031  1
  O  O88  1  0.40102476  0.47855565  0.23279414  1
  O  O89  1  0.23667573  0.35352283  0.68959509  1
  O  O90  1  0.05466986  0.38056195  0.51009833  1
  O  O91  1  0.27979365  0.64647717  0.31040491  1
  O  O92  1  0.22253760  0.20283427  0.85198598  1
  O  O93  1  0.77746240  0.79716573  0.14801402  1
  O  O94  1  0.59019857  0.68959509  0.64647717  1
  O  O95  1  0.76834681  0.83906294  0.62424345  1
  O  O96  1  0.42537187  0.85198598  0.79716573  1
  O  O97  1  0.43523181  0.51009833  0.61943805  1
  O  O98  1  0.29907904  0.94033628  0.46150563  1
  O  O99  1  0.00040988  0.31825615  0.17621794  1
  O  O100  1  0.27735784  0.79716573  0.14801402  1
  O  O101  1  0.70092096  0.05966372  0.53849437  1
