# generated using pymatgen
data_Pb13(Cl3O5)2
_symmetry_space_group_name_H-M   'P 1'
_cell_length_a   7.08674561
_cell_length_b   8.91626580
_cell_length_c   23.79500519
_cell_angle_alpha   97.24905195
_cell_angle_beta   90.00000000
_cell_angle_gamma   113.41608174
_symmetry_Int_Tables_number   1
_chemical_formula_structural   Pb13(Cl3O5)2
_chemical_formula_sum   'Pb26 Cl12 O20'
_cell_volume   1366.60901417
_cell_formula_units_Z   2
loop_
 _symmetry_equiv_pos_site_id
 _symmetry_equiv_pos_as_xyz
  1  'x, y, z'
loop_
 _atom_site_type_symbol
 _atom_site_label
 _atom_site_symmetry_multiplicity
 _atom_site_fract_x
 _atom_site_fract_y
 _atom_site_fract_z
 _atom_site_occupancy
  Pb  Pb0  1  0.88304578  0.20859548  0.79068018  1
  Pb  Pb1  1  0.26661937  0.64859371  0.84676181  1
  Pb  Pb2  1  0.84029859  0.83400670  0.86658602  1
  Pb  Pb3  1  0.00629189  0.16599330  0.63341398  1
  Pb  Pb4  1  0.22209053  0.27212715  0.91678873  1
  Pb  Pb5  1  0.32554970  0.20859548  0.29068018  1
  Pb  Pb6  1  0.19707264  0.90482971  0.98856288  1
  Pb  Pb7  1  0.63358888  0.46750580  0.43737075  1
  Pb  Pb8  1  0.15970141  0.16599330  0.13341398  1
  Pb  Pb9  1  0.23642297  0.00000000  0.75000000  1
  Pb  Pb10  1  0.70775707  0.90482971  0.48856288  1
  Pb  Pb11  1  0.05003662  0.27212715  0.41678873  1
  Pb  Pb12  1  0.36641112  0.53249420  0.56262925  1
  Pb  Pb13  1  0.83391692  0.46750580  0.93737075  1
  Pb  Pb14  1  0.99370811  0.83400670  0.36658602  1
  Pb  Pb15  1  0.16608308  0.53249420  0.06262925  1
  Pb  Pb16  1  0.11695422  0.79140452  0.20931982  1
  Pb  Pb17  1  0.67445030  0.79140452  0.70931982  1
  Pb  Pb18  1  0.29224293  0.09517029  0.51143712  1
  Pb  Pb19  1  0.38197434  0.64859371  0.34676181  1
  Pb  Pb20  1  0.80292736  0.09517029  0.01143712  1
  Pb  Pb21  1  0.94996338  0.72787285  0.58321127  1
  Pb  Pb22  1  0.77790947  0.72787285  0.08321127  1
  Pb  Pb23  1  0.61802566  0.35140629  0.65323819  1
  Pb  Pb24  1  0.73338063  0.35140629  0.15323819  1
  Pb  Pb25  1  0.76357703  0.00000000  0.25000000  1
  Cl  Cl26  1  0.81901481  0.32476454  0.54368394  1
  Cl  Cl27  1  0.64991526  0.64058866  0.25259802  1
  Cl  Cl28  1  0.49444602  0.06531110  0.36460249  1
  Cl  Cl29  1  0.42913493  0.93468890  0.13539751  1
  Cl  Cl30  1  0.99067340  0.64058866  0.75259802  1
  Cl  Cl31  1  0.50555398  0.93468890  0.63539751  1
  Cl  Cl32  1  0.18098519  0.67523546  0.45631606  1
  Cl  Cl33  1  0.00932660  0.35941134  0.24740198  1
  Cl  Cl34  1  0.57086507  0.06531110  0.86460249  1
  Cl  Cl35  1  0.35008474  0.35941134  0.74740198  1
  Cl  Cl36  1  0.50574973  0.32476454  0.04368394  1
  Cl  Cl37  1  0.49425027  0.67523546  0.95631606  1
  O  O38  1  0.03234882  0.04705994  0.81706870  1
  O  O39  1  0.32616380  0.34392831  0.48172584  1
  O  O40  1  0.98198690  0.97982960  0.55807190  1
  O  O41  1  0.66946950  0.71921543  0.40153384  1
  O  O42  1  0.01471112  0.04705994  0.31706870  1
  O  O43  1  0.01801310  0.02017040  0.44192810  1
  O  O44  1  0.98528888  0.95294006  0.68293130  1
  O  O45  1  0.98223550  0.65607169  0.01827416  1
  O  O46  1  0.04974594  0.71921543  0.90153384  1
  O  O47  1  0.99784270  0.97982960  0.05807190  1
  O  O48  1  0.05233363  0.39156660  0.86359673  1
  O  O49  1  0.33923297  0.39156660  0.36359673  1
  O  O50  1  0.01776450  0.34392831  0.98172584  1
  O  O51  1  0.66076703  0.60843340  0.63640327  1
  O  O52  1  0.00215730  0.02017040  0.94192810  1
  O  O53  1  0.95025406  0.28078457  0.09846616  1
  O  O54  1  0.96765118  0.95294006  0.18293130  1
  O  O55  1  0.33053050  0.28078457  0.59846616  1
  O  O56  1  0.94766637  0.60843340  0.13640327  1
  O  O57  1  0.67383620  0.65607169  0.51827416  1
