# generated using pymatgen
data_SrCaI4
_symmetry_space_group_name_H-M   'P 1'
_cell_length_a   10.35690688
_cell_length_b   10.35690688
_cell_length_c   13.06277550
_cell_angle_alpha   71.49894573
_cell_angle_beta   108.50105427
_cell_angle_gamma   95.90382129
_symmetry_Int_Tables_number   1
_chemical_formula_structural   SrCaI4
_chemical_formula_sum   'Sr4 Ca4 I16'
_cell_volume   1260.09174582
_cell_formula_units_Z   4
loop_
 _symmetry_equiv_pos_site_id
 _symmetry_equiv_pos_as_xyz
  1  'x, y, z'
loop_
 _atom_site_type_symbol
 _atom_site_label
 _atom_site_symmetry_multiplicity
 _atom_site_fract_x
 _atom_site_fract_y
 _atom_site_fract_z
 _atom_site_occupancy
  Sr  Sr0  1  0.30444344  0.69555656  0.65066771  1
  Sr  Sr1  1  0.30416119  0.30416119  0.00000000  1
  Sr  Sr2  1  0.69583881  0.69583881  0.00000000  1
  Sr  Sr3  1  0.69555656  0.30444344  0.34933229  1
  Ca  Ca4  1  0.31787804  0.68212196  0.15838133  1
  Ca  Ca5  1  0.31700705  0.31700705  0.50000000  1
  Ca  Ca6  1  0.68299295  0.68299295  0.50000000  1
  Ca  Ca7  1  0.68212196  0.31787804  0.84161867  1
  I  I8  1  0.98641036  0.66096872  0.57965197  1
  I  I9  1  0.33903128  0.01358964  0.57965197  1
  I  I10  1  0.66078451  0.01398160  0.91026585  1
  I  I11  1  0.98601840  0.33921549  0.91026585  1
  I  I12  1  0.34747340  0.65252660  0.92722337  1
  I  I13  1  0.34980689  0.65019311  0.42003688  1
  I  I14  1  0.65212741  0.65182272  0.74600529  1
  I  I15  1  0.34817728  0.34787259  0.74600529  1
  I  I16  1  0.34787259  0.34817728  0.25399471  1
  I  I17  1  0.65182272  0.65212741  0.25399471  1
  I  I18  1  0.65019311  0.34980689  0.57996312  1
  I  I19  1  0.65252660  0.34747340  0.07277663  1
  I  I20  1  0.33921549  0.98601840  0.08973415  1
  I  I21  1  0.01398160  0.66078451  0.08973415  1
  I  I22  1  0.66096872  0.98641036  0.42034803  1
  I  I23  1  0.01358964  0.33903128  0.42034803  1
