# generated using pymatgen
data_USb3O2F17
_symmetry_space_group_name_H-M   'P 1'
_cell_length_a   11.33048729
_cell_length_b   12.33081118
_cell_length_c   12.64894849
_cell_angle_alpha   90.00000000
_cell_angle_beta   90.00000000
_cell_angle_gamma   111.11158283
_symmetry_Int_Tables_number   1
_chemical_formula_structural   USb3O2F17
_chemical_formula_sum   'U4 Sb12 O8 F68'
_cell_volume   1648.62084152
_cell_formula_units_Z   4
loop_
 _symmetry_equiv_pos_site_id
 _symmetry_equiv_pos_as_xyz
  1  'x, y, z'
loop_
 _atom_site_type_symbol
 _atom_site_label
 _atom_site_symmetry_multiplicity
 _atom_site_fract_x
 _atom_site_fract_y
 _atom_site_fract_z
 _atom_site_occupancy
  U  U0  1  0.75906254  0.82442326  0.90459791  1
  U  U1  1  0.25906254  0.32442326  0.59540209  1
  U  U2  1  0.74093746  0.67557674  0.40459791  1
  U  U3  1  0.24093746  0.17557674  0.09540209  1
  Sb  Sb4  1  0.17495669  0.41515985  0.29699729  1
  Sb  Sb5  1  0.15957398  0.80584021  0.14697121  1
  Sb  Sb6  1  0.65957398  0.30584021  0.35302879  1
  Sb  Sb7  1  0.32504331  0.08484015  0.79699729  1
  Sb  Sb8  1  0.82504331  0.58484015  0.70300271  1
  Sb  Sb9  1  0.84042602  0.19415979  0.85302879  1
  Sb  Sb10  1  0.34042602  0.69415979  0.64697121  1
  Sb  Sb11  1  0.29669551  0.48992786  0.90444120  1
  Sb  Sb12  1  0.70330449  0.51007214  0.09555880  1
  Sb  Sb13  1  0.20330449  0.01007214  0.40444120  1
  Sb  Sb14  1  0.67495669  0.91515985  0.20300271  1
  Sb  Sb15  1  0.79669551  0.98992786  0.59555880  1
  O  O16  1  0.57491414  0.64095963  0.40357428  1
  O  O17  1  0.92508586  0.85904037  0.90357428  1
  O  O18  1  0.40677327  0.20903937  0.09343926  1
  O  O19  1  0.09322673  0.29096063  0.59343926  1
  O  O20  1  0.90677327  0.70903937  0.40656074  1
  O  O21  1  0.59322673  0.79096063  0.90656074  1
  O  O22  1  0.07491414  0.14095963  0.09642572  1
  O  O23  1  0.42508586  0.35904037  0.59642572  1
  F  F24  1  0.37705468  0.03664891  0.40770799  1
  F  F25  1  0.29310233  0.52860794  0.60329364  1
  F  F26  1  0.62294532  0.96335109  0.59229201  1
  F  F27  1  0.16739402  0.90872005  0.52058210  1
  F  F28  1  0.27070532  0.34939887  0.98821532  1
  F  F29  1  0.61375215  0.16299294  0.28143757  1
  F  F30  1  0.68403726  0.44919222  0.73057726  1
  F  F31  1  0.73194467  0.66721093  0.78952239  1
  F  F32  1  0.81970610  0.12215033  0.69716072  1
  F  F33  1  0.26805533  0.33278907  0.21047761  1
  F  F34  1  0.26208171  0.39017729  0.77791120  1
  F  F35  1  0.91396640  0.57673142  0.82712998  1
  F  F36  1  0.76805533  0.83278907  0.28952239  1
  F  F37  1  0.18029390  0.87784967  0.30283928  1
  F  F38  1  0.06453572  0.26269949  0.33089024  1
  F  F39  1  0.66739402  0.40872005  0.97941790  1
  F  F40  1  0.72182992  0.60999987  0.58027502  1
  F  F41  1  0.40022298  0.01176526  0.89285136  1
  F  F42  1  0.33260598  0.59127995  0.02058210  1
  F  F43  1  0.23791829  0.10982271  0.27791120  1
  F  F44  1  0.66583976  0.16141233  0.83974219  1
  F  F45  1  0.81596274  0.05080778  0.23057726  1
  F  F46  1  0.38624785  0.83700706  0.71856243  1
  F  F47  1  0.59977702  0.98823474  0.10714864  1
  F  F48  1  0.00612731  0.19176681  0.84222373  1
  F  F49  1  0.56453572  0.76269949  0.16910976  1
  F  F50  1  0.22929468  0.15060113  0.48821532  1
  F  F51  1  0.11375215  0.66299294  0.21856243  1
  F  F52  1  0.12294532  0.46335109  0.90770799  1
  F  F53  1  0.27817008  0.39000013  0.41972498  1
  F  F54  1  0.70689767  0.47139206  0.39670636  1
  F  F55  1  0.35601904  0.74558469  0.50620279  1
  F  F56  1  0.73791829  0.60982271  0.22208880  1
  F  F57  1  0.96815975  0.01170544  0.61700086  1
  F  F58  1  0.90022298  0.51176526  0.60714864  1
  F  F59  1  0.16583976  0.66141233  0.66025781  1
  F  F60  1  0.20689767  0.97139206  0.10329364  1
  F  F61  1  0.43546428  0.23730051  0.83089024  1
  F  F62  1  0.22182992  0.10999987  0.91972498  1
  F  F63  1  0.64398096  0.25441531  0.49379721  1
  F  F64  1  0.31970610  0.62215033  0.80283928  1
  F  F65  1  0.41396640  0.07673142  0.67287002  1
  F  F66  1  0.03184025  0.98829456  0.38299914  1
  F  F67  1  0.99387269  0.80823319  0.15777627  1
  F  F68  1  0.68029390  0.37784967  0.19716072  1
  F  F69  1  0.50612731  0.69176681  0.65777627  1
  F  F70  1  0.85601904  0.24558469  0.99379721  1
  F  F71  1  0.18403726  0.94919222  0.76942274  1
  F  F72  1  0.46815975  0.51170544  0.88299914  1
  F  F73  1  0.77070532  0.84939887  0.51178468  1
  F  F74  1  0.72929468  0.65060113  0.01178468  1
  F  F75  1  0.83416024  0.33858767  0.33974219  1
  F  F76  1  0.58603360  0.92326858  0.32712998  1
  F  F77  1  0.87705468  0.53664891  0.09229201  1
  F  F78  1  0.14398096  0.75441531  0.00620279  1
  F  F79  1  0.79310233  0.02860794  0.89670636  1
  F  F80  1  0.83260598  0.09127995  0.47941790  1
  F  F81  1  0.88624785  0.33700706  0.78143757  1
  F  F82  1  0.31596274  0.55080778  0.26942274  1
  F  F83  1  0.76208171  0.89017729  0.72208880  1
  F  F84  1  0.49387269  0.30823319  0.34222373  1
  F  F85  1  0.09977702  0.48823474  0.39285136  1
  F  F86  1  0.33416024  0.83858767  0.16025781  1
  F  F87  1  0.08603360  0.42326858  0.17287002  1
  F  F88  1  0.77817008  0.89000013  0.08027502  1
  F  F89  1  0.53184025  0.48829456  0.11700086  1
  F  F90  1  0.23194467  0.16721093  0.71047761  1
  F  F91  1  0.93546428  0.73730051  0.66910976  1
