# generated using pymatgen
data_Rb2Y(NO3)5
_symmetry_space_group_name_H-M   'P 1'
_cell_length_a   11.48269054
_cell_length_b   11.48269099
_cell_length_c   9.61719618
_cell_angle_alpha   90.00000000
_cell_angle_beta   90.00000000
_cell_angle_gamma   119.99999869
_symmetry_Int_Tables_number   1
_chemical_formula_structural   Rb2Y(NO3)5
_chemical_formula_sum   'Rb6 Y3 N15 O45'
_cell_volume   1098.16210007
_cell_formula_units_Z   3
loop_
 _symmetry_equiv_pos_site_id
 _symmetry_equiv_pos_as_xyz
  1  'x, y, z'
loop_
 _atom_site_type_symbol
 _atom_site_label
 _atom_site_symmetry_multiplicity
 _atom_site_fract_x
 _atom_site_fract_y
 _atom_site_fract_z
 _atom_site_occupancy
  Rb  Rb0  1  0.39533242  0.33420108  0.46138694  1
  Rb  Rb1  1  0.66644124  0.87065530  0.29522757  1
  Rb  Rb2  1  0.66579892  0.06113134  0.79471994  1
  Rb  Rb3  1  0.12934470  0.79578594  0.62856157  1
  Rb  Rb4  1  0.93886866  0.60466758  0.12805294  1
  Rb  Rb5  1  0.20421406  0.33355876  0.96189457  1
  Y  Y6  1  0.33893726  0.00612051  0.12874756  1
  Y  Y7  1  0.99387949  0.33281675  0.46208056  1
  Y  Y8  1  0.66718325  0.66106274  0.79541456  1
  N  N9  1  0.08820287  0.00316322  0.19347845  1
  N  N10  1  0.91496036  0.91179713  0.86014545  1
  N  N11  1  0.40866274  0.97390263  0.41407267  1
  N  N12  1  0.92318267  0.23164892  0.17661605  1
  N  N13  1  0.02609737  0.43476011  0.74740567  1
  N  N14  1  0.41866955  0.66266813  0.73042742  1
  N  N15  1  0.99683678  0.08503964  0.52681145  1
  N  N16  1  0.24399858  0.58133045  0.39709442  1
  N  N17  1  0.58589572  0.25313880  0.13197304  1
  N  N18  1  0.66724308  0.41410428  0.79864004  1
  N  N19  1  0.76835108  0.69153376  0.50995005  1
  N  N20  1  0.74686120  0.33275692  0.46530604  1
  N  N21  1  0.56523989  0.59133726  0.08073867  1
  N  N22  1  0.30846624  0.07681733  0.84328305  1
  N  N23  1  0.33733187  0.75600142  0.06376142  1
  O  O24  1  0.66249550  0.69876199  0.54143330  1
  O  O25  1  0.00293430  0.98299612  0.55136135  1
  O  O26  1  0.42242777  0.55315282  0.72078598  1
  O  O27  1  0.33251876  0.15750396  0.94538039  1
  O  O28  1  0.88722151  0.08869812  0.53628214  1
  O  O29  1  0.29549740  0.96634204  0.38240143  1
  O  O30  1  0.84249604  0.17501480  0.27871339  1
  O  O31  1  0.48277065  0.23519371  0.20264147  1
  O  O32  1  1.00136217  0.49111460  0.64558121  1
  O  O33  1  0.91130188  0.79852338  0.86961614  1
  O  O34  1  0.81147618  0.70798384  0.38990783  1
  O  O35  1  0.01700388  0.01993818  0.88469435  1
  O  O36  1  0.80378765  0.90480091  0.82140908  1
  O  O37  1  0.35221584  0.68357653  0.37331769  1
  O  O38  1  0.75242306  0.51722935  0.86930747  1
  O  O39  1  0.84849009  0.41768345  0.39294402  1
  O  O40  1  0.09519909  0.89898674  0.15474208  1
  O  O41  1  0.50888540  0.51024757  0.97891421  1
  O  O42  1  0.89650766  0.18852382  0.05657383  1
  O  O43  1  0.23707314  0.47002027  0.43524800  1
  O  O44  1  0.64009890  0.33283595  0.46704463  1
  O  O45  1  0.67084464  0.70450260  0.04906743  1
  O  O46  1  0.82498520  0.66748124  0.61204739  1
  O  O47  1  0.52997973  0.76705287  0.76858200  1
  O  O48  1  0.33136070  0.64778416  0.03998469  1
  O  O49  1  0.66716405  0.30726294  0.80037863  1
  O  O50  1  0.43511954  0.95714786  0.53411578  1
  O  O51  1  0.30123801  0.96373351  0.87476630  1
  O  O52  1  0.58231655  0.43080664  0.72627702  1
  O  O53  1  0.48975243  -0.00136217  0.31224821  1
  O  O54  1  0.23294713  0.76292686  0.10191500  1
  O  O55  1  0.03626649  0.33750450  0.20809930  1
  O  O56  1  0.04285214  0.47797168  0.86744878  1
  O  O57  1  0.20147662  0.11277849  0.20294914  1
  O  O58  1  0.29201616  0.10349234  0.72324083  1
  O  O59  1  0.69273706  0.35990110  0.13371163  1
  O  O60  1  0.52202832  0.56488046  0.20078178  1
  O  O61  1  0.76480629  0.24757694  0.53597447  1
  O  O62  1  0.98006182  0.99706570  0.21802835  1
  O  O63  1  0.13072505  0.57757223  0.38745298  1
  O  O64  1  0.03365796  0.32915536  0.71573443  1
  O  O65  1  0.44684718  0.86927495  0.05411898  1
  O  O66  1  0.31642347  0.66863930  0.70665169  1
  O  O67  1  0.56919336  0.15150991  0.05961002  1
  O  O68  1  0.10101326  0.19621235  0.48807508  1
