# generated using pymatgen
data_NaSm(PS3)2
_symmetry_space_group_name_H-M   'P 1'
_cell_length_a   7.40384519
_cell_length_b   11.17418718
_cell_length_c   11.75623435
_cell_angle_alpha   111.22984069
_cell_angle_beta   90.00000000
_cell_angle_gamma   90.00000000
_symmetry_Int_Tables_number   1
_chemical_formula_structural   NaSm(PS3)2
_chemical_formula_sum   'Na4 Sm4 P8 S24'
_cell_volume   906.60994181
_cell_formula_units_Z   4
loop_
 _symmetry_equiv_pos_site_id
 _symmetry_equiv_pos_as_xyz
  1  'x, y, z'
loop_
 _atom_site_type_symbol
 _atom_site_label
 _atom_site_symmetry_multiplicity
 _atom_site_fract_x
 _atom_site_fract_y
 _atom_site_fract_z
 _atom_site_occupancy
  Na  Na0  1  0.89070577  0.87897070  0.63999641  1
  Na  Na1  1  0.60929423  0.37897070  0.63999641  1
  Na  Na2  1  0.39070577  0.62102930  0.36000359  1
  Na  Na3  1  0.10929423  0.12102930  0.36000359  1
  Sm  Sm4  1  0.61017391  0.90899764  0.15259118  1
  Sm  Sm5  1  0.88982609  0.40899764  0.15259118  1
  Sm  Sm6  1  0.11017391  0.59100236  0.84740882  1
  Sm  Sm7  1  0.38982609  0.09100236  0.84740882  1
  P  P8  1  0.38450679  0.74943678  0.69386276  1
  P  P9  1  0.61549321  0.25056322  0.30613724  1
  P  P10  1  0.88450679  0.75056322  0.30613724  1
  P  P11  1  0.11549321  0.24943678  0.69386276  1
  P  P12  1  0.39705373  0.25021177  0.17540090  1
  P  P13  1  0.89705373  0.24978823  0.82459910  1
  P  P14  1  0.10294627  0.75021177  0.17540090  1
  P  P15  1  0.60294627  0.74978823  0.82459910  1
  S  S16  1  0.18608373  0.56455215  0.09219453  1
  S  S17  1  0.50826677  0.16172798  0.41075680  1
  S  S18  1  0.29594544  0.86653309  0.28116549  1
  S  S19  1  0.70405456  0.13346691  0.71883451  1
  S  S20  1  0.31360064  0.35485234  0.80646872  1
  S  S21  1  0.31391627  0.06455215  0.09219453  1
  S  S22  1  0.18639936  0.85485234  0.80646872  1
  S  S23  1  0.47925643  0.68681883  0.94914736  1
  S  S24  1  0.97925643  0.81318117  0.05085264  1
  S  S25  1  0.20405456  0.36653309  0.28116549  1
  S  S26  1  0.49173323  0.83827202  0.58924320  1
  S  S27  1  0.68639936  0.64514766  0.19353128  1
  S  S28  1  0.68608373  0.93544785  0.90780547  1
  S  S29  1  0.29938866  0.56511413  0.62174993  1
  S  S30  1  0.20061134  0.06511413  0.62174993  1
  S  S31  1  0.81360064  0.14514766  0.19353128  1
  S  S32  1  0.79594544  0.63346691  0.71883451  1
  S  S33  1  0.79938866  0.93488587  0.37825007  1
  S  S34  1  0.52074357  0.31318117  0.05085264  1
  S  S35  1  0.70061134  0.43488587  0.37825007  1
  S  S36  1  0.81391627  0.43544785  0.90780547  1
  S  S37  1  0.02074357  0.18681883  0.94914736  1
  S  S38  1  0.00826677  0.33827202  0.58924320  1
  S  S39  1  0.99173323  0.66172798  0.41075680  1
