# generated using pymatgen
data_SmCuTeS
_symmetry_space_group_name_H-M   'P 1'
_cell_length_a   7.59395090
_cell_length_b   7.56711656
_cell_length_c   12.70286111
_cell_angle_alpha   90.00000000
_cell_angle_beta   90.00000000
_cell_angle_gamma   90.00000000
_symmetry_Int_Tables_number   1
_chemical_formula_structural   SmCuTeS
_chemical_formula_sum   'Sm8 Cu8 Te8 S8'
_cell_volume   729.96116918
_cell_formula_units_Z   8
loop_
 _symmetry_equiv_pos_site_id
 _symmetry_equiv_pos_as_xyz
  1  'x, y, z'
loop_
 _atom_site_type_symbol
 _atom_site_label
 _atom_site_symmetry_multiplicity
 _atom_site_fract_x
 _atom_site_fract_y
 _atom_site_fract_z
 _atom_site_occupancy
  Sm  Sm0  1  0.74052347  0.97760119  0.06837139  1
  Sm  Sm1  1  0.75947653  0.47760119  0.93162861  1
  Sm  Sm2  1  0.25947653  0.02239881  0.93162861  1
  Sm  Sm3  1  0.24052347  0.02239881  0.43162861  1
  Sm  Sm4  1  0.24052347  0.52239881  0.06837139  1
  Sm  Sm5  1  0.75947653  0.97760119  0.56837139  1
  Sm  Sm6  1  0.74052347  0.47760119  0.43162861  1
  Sm  Sm7  1  0.25947653  0.52239881  0.56837139  1
  Cu  Cu8  1  0.57118232  0.33054490  0.20922132  1
  Cu  Cu9  1  0.57118232  0.83054490  0.29077868  1
  Cu  Cu10  1  0.92881768  0.33054490  0.70922132  1
  Cu  Cu11  1  0.07118232  0.16945510  0.20922132  1
  Cu  Cu12  1  0.07118232  0.66945510  0.29077868  1
  Cu  Cu13  1  0.42881768  0.16945510  0.70922132  1
  Cu  Cu14  1  0.92881768  0.83054490  0.79077868  1
  Cu  Cu15  1  0.42881768  0.66945510  0.79077868  1
  Te  Te16  1  0.72202109  0.60926060  0.69273543  1
  Te  Te17  1  0.27797891  0.89073940  0.19273543  1
  Te  Te18  1  0.22202109  0.89073940  0.69273543  1
  Te  Te19  1  0.27797891  0.39073940  0.30726457  1
  Te  Te20  1  0.22202109  0.39073940  0.80726457  1
  Te  Te21  1  0.72202109  0.10926060  0.80726457  1
  Te  Te22  1  0.77797891  0.60926060  0.19273543  1
  Te  Te23  1  0.77797891  0.10926060  0.30726457  1
  S  S24  1  0.49798198  0.74010500  0.96175812  1
  S  S25  1  0.49798198  0.24010500  0.53824188  1
  S  S26  1  0.50201802  0.75989500  0.46175812  1
  S  S27  1  0.00201802  0.74010500  0.46175812  1
  S  S28  1  0.50201802  0.25989500  0.03824188  1
  S  S29  1  0.99798198  0.75989500  0.96175812  1
  S  S30  1  0.00201802  0.24010500  0.03824188  1
  S  S31  1  0.99798198  0.25989500  0.53824188  1
