# generated using pymatgen
data_NaLi3GeO4
_symmetry_space_group_name_H-M   'P 1'
_cell_length_a   10.23593074
_cell_length_b   10.23593069
_cell_length_c   10.23593100
_cell_angle_alpha   101.44663133
_cell_angle_beta   113.62647818
_cell_angle_gamma   113.62647544
_symmetry_Int_Tables_number   1
_chemical_formula_structural   NaLi3GeO4
_chemical_formula_sum   'Na8 Li24 Ge8 O32'
_cell_volume   813.67828677
_cell_formula_units_Z   8
loop_
 _symmetry_equiv_pos_site_id
 _symmetry_equiv_pos_as_xyz
  1  'x, y, z'
loop_
 _atom_site_type_symbol
 _atom_site_label
 _atom_site_symmetry_multiplicity
 _atom_site_fract_x
 _atom_site_fract_y
 _atom_site_fract_z
 _atom_site_occupancy
  Na  Na0  1  0.73785794  0.60680687  0.31909958  1
  Na  Na1  1  0.26214206  0.39319313  0.68090042  1
  Na  Na2  1  0.21229271  0.63105107  0.89319313  1
  Na  Na3  1  0.76214206  0.08124164  0.86894893  1
  Na  Na4  1  0.23785794  0.91875836  0.13105107  1
  Na  Na5  1  0.71229271  0.81909958  0.58124164  1
  Na  Na6  1  0.78770729  0.36894893  0.10680687  1
  Na  Na7  1  0.28770729  0.18090042  0.41875836  1
  Li  Li8  1  0.61438040  0.03714301  0.46492113  1
  Li  Li9  1  0.60248951  0.31373458  0.42781281  1
  Li  Li10  1  0.55929160  0.53486792  0.65147086  1
  Li  Li11  1  0.05929160  0.40782074  0.02442368  1
  Li  Li12  1  0.61407823  0.78875493  0.18626542  1
  Li  Li13  1  0.61660294  0.52442368  0.96513208  1
  Li  Li14  1  0.39751049  0.68626542  0.57218719  1
  Li  Li15  1  0.57222188  0.03507887  0.14945927  1
  Li  Li16  1  0.38592177  0.21124507  0.81373458  1
  Li  Li17  1  0.38561960  0.96285699  0.53507887  1
  Li  Li18  1  0.92777812  0.07723739  0.46285699  1
  Li  Li19  1  0.88339706  0.84852914  0.90782074  1
  Li  Li20  1  0.88592177  0.07218719  0.17467670  1
  Li  Li21  1  0.88561960  0.35054073  0.42276261  1
  Li  Li22  1  0.94070840  0.59217926  0.97557632  1
  Li  Li23  1  0.11407823  0.92781281  0.82532330  1
  Li  Li24  1  0.11438040  0.64945927  0.57723739  1
  Li  Li25  1  0.89751049  0.32532330  0.71124507  1
  Li  Li26  1  0.44070840  0.46513208  0.34852914  1
  Li  Li27  1  0.42777812  0.96492113  0.85054073  1
  Li  Li28  1  0.38339706  0.47557632  0.03486792  1
  Li  Li29  1  0.07222188  0.92276261  0.53714301  1
  Li  Li30  1  0.10248951  0.67467670  0.28875493  1
  Li  Li31  1  0.11660294  0.15147086  0.09217926  1
  Ge  Ge32  1  0.89276220  0.62077524  0.65932369  1
  Ge  Ge33  1  0.46145155  0.22801305  0.12077524  1
  Ge  Ge34  1  0.60723780  0.26656150  0.72801305  1
  Ge  Ge35  1  0.10723780  0.37922476  0.34067631  1
  Ge  Ge36  1  0.39276220  0.73343850  0.27198695  1
  Ge  Ge37  1  0.53854845  0.77198695  0.87922476  1
  Ge  Ge38  1  0.03854845  0.15932369  0.76656150  1
  Ge  Ge39  1  0.96145155  0.84067631  0.23343850  1
  O  O40  1  0.16029617  0.89735295  0.39548905  1
  O  O41  1  0.00419202  0.96596842  0.13883714  1
  O  O42  1  0.04859448  0.51921213  0.36961216  1
  O  O43  1  0.36214791  0.24488579  0.22602409  1
  O  O44  1  0.86214791  0.63612383  0.11726212  1
  O  O45  1  0.98113829  0.72602409  0.86387617  1
  O  O46  1  0.99580798  0.03403158  0.86116286  1
  O  O47  1  0.13785209  0.36387617  0.88273788  1
  O  O48  1  0.99813610  0.76294322  0.60264705  1
  O  O49  1  0.01886171  0.27397591  0.13612383  1
  O  O50  1  0.83970383  0.10264705  0.60451095  1
  O  O51  1  0.50419202  0.36535487  0.03822360  1
  O  O52  1  0.14959996  0.13038784  0.67898232  1
  O  O53  1  0.45140552  0.82101768  0.47061765  1
  O  O54  1  0.50186390  0.10451095  0.76480712  1
  O  O55  1  0.48113829  0.61726212  0.25511421  1
  O  O56  1  0.63785209  0.75511421  0.77397591  1
  O  O57  1  0.95140552  0.48078787  0.63038784  1
  O  O58  1  0.54859448  0.17898232  0.52938235  1
  O  O59  1  0.67286873  0.53822360  0.53403158  1
  O  O60  1  0.85040004  0.86961216  0.32101768  1
  O  O61  1  0.66029617  0.26480712  0.26294322  1
  O  O62  1  0.35040004  0.02938235  0.98078787  1
  O  O63  1  0.49813610  0.89548905  0.23519288  1
  O  O64  1  0.32713127  0.46177640  0.46596842  1
  O  O65  1  0.51886171  0.38273788  0.74488579  1
  O  O66  1  0.00186390  0.23705678  0.39735295  1
  O  O67  1  0.82713127  0.36116286  0.86535487  1
  O  O68  1  0.33970383  0.73519288  0.73705678  1
  O  O69  1  0.17286873  0.63883714  0.13464513  1
  O  O70  1  0.64959996  0.97061765  0.01921213  1
  O  O71  1  0.49580798  0.63464513  0.96177640  1
