# generated using pymatgen
data_K3V3(AsO7)2
_symmetry_space_group_name_H-M   'P 1'
_cell_length_a   7.95635766
_cell_length_b   10.34250324
_cell_length_c   16.67131792
_cell_angle_alpha   90.00000000
_cell_angle_beta   90.00000000
_cell_angle_gamma   90.00000000
_symmetry_Int_Tables_number   1
_chemical_formula_structural   K3V3(AsO7)2
_chemical_formula_sum   'K12 V12 As8 O56'
_cell_volume   1371.86032667
_cell_formula_units_Z   4
loop_
 _symmetry_equiv_pos_site_id
 _symmetry_equiv_pos_as_xyz
  1  'x, y, z'
loop_
 _atom_site_type_symbol
 _atom_site_label
 _atom_site_symmetry_multiplicity
 _atom_site_fract_x
 _atom_site_fract_y
 _atom_site_fract_z
 _atom_site_occupancy
  K  K0  1  0.41894854  0.03890929  0.61018580  1
  K  K1  1  0.45861282  0.34832708  0.25000000  1
  K  K2  1  0.58105146  0.96109071  0.38981420  1
  K  K3  1  0.95861282  0.15167292  0.25000000  1
  K  K4  1  0.41894854  0.03890929  0.88981420  1
  K  K5  1  0.54138718  0.65167292  0.75000000  1
  K  K6  1  0.58105146  0.96109071  0.11018580  1
  K  K7  1  0.91894854  0.46109071  0.88981420  1
  K  K8  1  0.08105146  0.53890929  0.11018580  1
  K  K9  1  0.08105146  0.53890929  0.38981420  1
  K  K10  1  0.91894854  0.46109071  0.61018580  1
  K  K11  1  0.04138718  0.84832708  0.75000000  1
  V  V12  1  0.79828259  0.78389243  0.55746964  1
  V  V13  1  0.73967472  0.72735701  0.25000000  1
  V  V14  1  0.20171741  0.21610757  0.05746964  1
  V  V15  1  0.29828259  0.71610757  0.94253036  1
  V  V16  1  0.76032528  0.22735701  0.75000000  1
  V  V17  1  0.70171741  0.28389243  0.05746964  1
  V  V18  1  0.23967472  0.77264299  0.25000000  1
  V  V19  1  0.70171741  0.28389243  0.44253036  1
  V  V20  1  0.26032528  0.27264299  0.75000000  1
  V  V21  1  0.20171741  0.21610757  0.44253036  1
  V  V22  1  0.29828259  0.71610757  0.55746964  1
  V  V23  1  0.79828259  0.78389243  0.94253036  1
  As  As24  1  0.60913209  0.59584161  0.07473197  1
  As  As25  1  0.10913209  0.90415839  0.07473197  1
  As  As26  1  0.89086791  0.09584161  0.57473197  1
  As  As27  1  0.39086791  0.40415839  0.57473197  1
  As  As28  1  0.10913209  0.90415839  0.42526803  1
  As  As29  1  0.60913209  0.59584161  0.42526803  1
  As  As30  1  0.39086791  0.40415839  0.92526803  1
  As  As31  1  0.89086791  0.09584161  0.92526803  1
  O  O32  1  0.08680726  0.12235135  0.53624798  1
  O  O33  1  0.41319274  0.62235135  0.03624798  1
  O  O34  1  0.58680726  0.37764865  0.53624798  1
  O  O35  1  0.90196477  0.62649591  0.25000000  1
  O  O36  1  0.78048461  0.62691152  0.48576536  1
  O  O37  1  0.80858759  0.70327129  0.64429246  1
  O  O38  1  0.09803523  0.37350409  0.75000000  1
  O  O39  1  0.87914214  0.20431376  0.65460541  1
  O  O40  1  0.41319274  0.62235135  0.46375202  1
  O  O41  1  0.09744217  0.67546452  0.54394368  1
  O  O42  1  0.12085786  0.79568624  0.34539459  1
  O  O43  1  0.12085786  0.79568624  0.15460541  1
  O  O44  1  0.78048461  0.62691152  0.01423464  1
  O  O45  1  0.09744217  0.67546452  0.95605632  1
  O  O46  1  0.40196477  0.87350409  0.25000000  1
  O  O47  1  0.87914214  0.20431376  0.84539459  1
  O  O48  1  0.69848063  0.38105890  0.75000000  1
  O  O49  1  0.28048461  0.87308848  0.01423464  1
  O  O50  1  0.12471418  0.05544062  0.38320725  1
  O  O51  1  0.12471418  0.05544062  0.11679275  1
  O  O52  1  0.80858759  0.70327129  0.85570754  1
  O  O53  1  0.58680726  0.37764865  0.96375202  1
  O  O54  1  0.80151937  0.88105890  0.25000000  1
  O  O55  1  0.62471418  0.44455938  0.38320725  1
  O  O56  1  0.30151937  0.61894110  0.25000000  1
  O  O57  1  0.08680726  0.12235135  0.96375202  1
  O  O58  1  0.91319274  0.87764865  0.03624798  1
  O  O59  1  0.59744217  0.82453548  0.54394368  1
  O  O60  1  0.62471418  0.44455938  0.11679275  1
  O  O61  1  0.71951539  0.12691152  0.98576536  1
  O  O62  1  0.30858759  0.79672871  0.85570754  1
  O  O63  1  0.37914214  0.29568624  0.65460541  1
  O  O64  1  0.90255783  0.32453548  0.04394368  1
  O  O65  1  0.69141241  0.20327129  0.14429246  1
  O  O66  1  0.19848063  0.11894110  0.75000000  1
  O  O67  1  0.19141241  0.29672871  0.14429246  1
  O  O68  1  0.37528582  0.55544062  0.88320725  1
  O  O69  1  0.62085786  0.70431376  0.34539459  1
  O  O70  1  0.21951539  0.37308848  0.51423464  1
  O  O71  1  0.87528582  0.94455938  0.61679275  1
  O  O72  1  0.40255783  0.17546452  0.04394368  1
  O  O73  1  0.90255783  0.32453548  0.45605632  1
  O  O74  1  0.87528582  0.94455938  0.88320725  1
  O  O75  1  0.28048461  0.87308848  0.48576536  1
  O  O76  1  0.21951539  0.37308848  0.98576536  1
  O  O77  1  0.37528582  0.55544062  0.61679275  1
  O  O78  1  0.91319274  0.87764865  0.46375202  1
  O  O79  1  0.62085786  0.70431376  0.15460541  1
  O  O80  1  0.37914214  0.29568624  0.84539459  1
  O  O81  1  0.40255783  0.17546452  0.45605632  1
  O  O82  1  0.30858759  0.79672871  0.64429246  1
  O  O83  1  0.19141241  0.29672871  0.35570754  1
  O  O84  1  0.71951539  0.12691152  0.51423464  1
  O  O85  1  0.69141241  0.20327129  0.35570754  1
  O  O86  1  0.59803523  0.12649591  0.75000000  1
  O  O87  1  0.59744217  0.82453548  0.95605632  1
