# generated using pymatgen
data_K2BiF5
_symmetry_space_group_name_H-M   'P 1'
_cell_length_a   6.70982052
_cell_length_b   7.56711340
_cell_length_c   11.61122938
_cell_angle_alpha   90.00000000
_cell_angle_beta   90.00000000
_cell_angle_gamma   90.00000000
_symmetry_Int_Tables_number   1
_chemical_formula_structural   K2BiF5
_chemical_formula_sum   'K8 Bi4 F20'
_cell_volume   589.54824435
_cell_formula_units_Z   4
loop_
 _symmetry_equiv_pos_site_id
 _symmetry_equiv_pos_as_xyz
  1  'x, y, z'
loop_
 _atom_site_type_symbol
 _atom_site_label
 _atom_site_symmetry_multiplicity
 _atom_site_fract_x
 _atom_site_fract_y
 _atom_site_fract_z
 _atom_site_occupancy
  K  K0  1  0.99284150  0.00113486  0.66927216  1
  K  K1  1  0.99284150  0.49886514  0.66927216  1
  K  K2  1  0.49284150  0.50113486  0.83072784  1
  K  K3  1  0.50715850  0.49886514  0.16927216  1
  K  K4  1  0.00715850  0.50113486  0.33072784  1
  K  K5  1  0.50715850  0.00113486  0.16927216  1
  K  K6  1  0.49284150  0.99886514  0.83072784  1
  K  K7  1  0.00715850  0.99886514  0.33072784  1
  Bi  Bi8  1  0.06243598  0.25000000  0.04502997  1
  Bi  Bi9  1  0.43756402  0.25000000  0.54502997  1
  Bi  Bi10  1  0.56243598  0.75000000  0.45497003  1
  Bi  Bi11  1  0.93756402  0.75000000  0.95497003  1
  F  F12  1  0.77508793  0.75000000  0.78463642  1
  F  F13  1  0.88786970  0.45463312  0.90706314  1
  F  F14  1  0.69183401  0.25000000  0.67053533  1
  F  F15  1  0.61213030  0.45463312  0.40706314  1
  F  F16  1  0.38786970  0.54536688  0.59293686  1
  F  F17  1  0.72491207  0.75000000  0.28463642  1
  F  F18  1  0.89093832  0.75000000  0.51143537  1
  F  F19  1  0.60906168  0.75000000  0.01143537  1
  F  F20  1  0.27508793  0.25000000  0.71536358  1
  F  F21  1  0.88786970  0.04536688  0.90706314  1
  F  F22  1  0.30816599  0.75000000  0.32946467  1
  F  F23  1  0.80816599  0.25000000  0.17053533  1
  F  F24  1  0.22491207  0.25000000  0.21536358  1
  F  F25  1  0.38786970  0.95463312  0.59293686  1
  F  F26  1  0.39093832  0.25000000  0.98856463  1
  F  F27  1  0.10906168  0.25000000  0.48856463  1
  F  F28  1  0.61213030  0.04536688  0.40706314  1
  F  F29  1  0.11213030  0.95463312  0.09293686  1
  F  F30  1  0.19183401  0.75000000  0.82946467  1
  F  F31  1  0.11213030  0.54536688  0.09293686  1
