# generated using pymatgen
data_CePS4
_symmetry_space_group_name_H-M   'P 1'
_cell_length_a   11.10649680
_cell_length_b   11.10649679
_cell_length_c   12.47772038
_cell_angle_alpha   116.42673770
_cell_angle_beta   116.42673772
_cell_angle_gamma   90.00000013
_symmetry_Int_Tables_number   1
_chemical_formula_structural   CePS4
_chemical_formula_sum   'Ce8 P8 S32'
_cell_volume   1196.06815910
_cell_formula_units_Z   8
loop_
 _symmetry_equiv_pos_site_id
 _symmetry_equiv_pos_as_xyz
  1  'x, y, z'
loop_
 _atom_site_type_symbol
 _atom_site_label
 _atom_site_symmetry_multiplicity
 _atom_site_fract_x
 _atom_site_fract_y
 _atom_site_fract_z
 _atom_site_occupancy
  Ce  Ce0  1  0.62500000  0.87500000  0.25000000  1
  Ce  Ce1  1  0.12500000  0.37500000  0.25000000  1
  Ce  Ce2  1  0.62500000  0.37500000  0.25000000  1
  Ce  Ce3  1  0.12500000  0.87500000  0.25000000  1
  Ce  Ce4  1  0.37500000  0.62500000  0.75000000  1
  Ce  Ce5  1  0.87500000  0.12500000  0.75000000  1
  Ce  Ce6  1  0.87500000  0.62500000  0.75000000  1
  Ce  Ce7  1  0.37500000  0.12500000  0.75000000  1
  P  P8  1  0.75000000  0.78583838  0.00000000  1
  P  P9  1  0.21416162  0.75000000  0.50000000  1
  P  P10  1  0.25000000  0.71416162  0.00000000  1
  P  P11  1  0.71416162  0.75000000  0.50000000  1
  P  P12  1  0.25000000  0.21416162  0.00000000  1
  P  P13  1  0.75000000  0.28583838  0.00000000  1
  P  P14  1  0.78583838  0.25000000  0.50000000  1
  P  P15  1  0.28583838  0.25000000  0.50000000  1
  S  S16  1  0.90829021  0.38631426  0.00371286  1
  S  S17  1  0.83954324  0.77090857  0.17555294  1
  S  S18  1  0.40829021  0.61739861  0.00371286  1
  S  S19  1  0.77090857  0.33600969  0.67555294  1
  S  S20  1  0.16045676  0.22909143  0.82444706  1
  S  S21  1  0.11739861  0.90829021  0.50371286  1
  S  S22  1  0.33954324  0.40464437  0.17555294  1
  S  S23  1  0.09170979  0.61368574  0.99628714  1
  S  S24  1  0.66045676  0.59535563  0.82444706  1
  S  S25  1  0.33600969  0.90464437  0.17555294  1
  S  S26  1  0.59535563  0.16399031  0.32444706  1
  S  S27  1  0.59542265  0.88631426  0.00371286  1
  S  S28  1  0.90457735  0.88260139  0.99628714  1
  S  S29  1  0.09535563  0.16045676  0.32444706  1
  S  S30  1  0.88260139  0.09170979  0.49628714  1
  S  S31  1  0.38260139  0.40457735  0.49628714  1
  S  S32  1  0.40464437  0.83600969  0.67555294  1
  S  S33  1  0.11368574  0.59170979  0.49628714  1
  S  S34  1  0.66399031  0.09535563  0.82444706  1
  S  S35  1  0.72909143  0.66045676  0.32444706  1
  S  S36  1  0.88631426  0.40829021  0.50371286  1
  S  S37  1  0.83600969  0.27090857  0.17555294  1
  S  S38  1  0.59170979  0.38260139  0.99628714  1
  S  S39  1  0.22909143  0.66399031  0.32444706  1
  S  S40  1  0.38631426  0.09542265  0.50371286  1
  S  S41  1  0.61368574  0.90457735  0.49628714  1
  S  S42  1  0.40457735  0.11368574  0.99628714  1
  S  S43  1  0.27090857  0.33954324  0.67555294  1
  S  S44  1  0.16399031  0.72909143  0.82444706  1
  S  S45  1  0.61739861  0.59542265  0.50371286  1
  S  S46  1  0.09542265  0.11739861  0.00371286  1
  S  S47  1  0.90464437  0.83954324  0.67555294  1
