# generated using pymatgen
data_Na2CaP2O7
_symmetry_space_group_name_H-M   'P 1'
_cell_length_a   5.46674923
_cell_length_b   7.17975892
_cell_length_c   8.92877436
_cell_angle_alpha   69.39385949
_cell_angle_beta   89.12618543
_cell_angle_gamma   88.90205279
_symmetry_Int_Tables_number   1
_chemical_formula_structural   Na2CaP2O7
_chemical_formula_sum   'Na4 Ca2 P4 O14'
_cell_volume   327.95869591
_cell_formula_units_Z   2
loop_
 _symmetry_equiv_pos_site_id
 _symmetry_equiv_pos_as_xyz
  1  'x, y, z'
loop_
 _atom_site_type_symbol
 _atom_site_label
 _atom_site_symmetry_multiplicity
 _atom_site_fract_x
 _atom_site_fract_y
 _atom_site_fract_z
 _atom_site_occupancy
  Na  Na0  1  0.23427918  0.86100648  0.54892294  1
  Na  Na1  1  0.73388028  0.21083291  0.01862098  1
  Na  Na2  1  0.76572082  0.13899352  0.45107706  1
  Na  Na3  1  0.26611972  0.78916709  0.98137902  1
  Ca  Ca4  1  0.23141119  0.24728884  0.72033250  1
  Ca  Ca5  1  0.76858881  0.75271116  0.27966750  1
  P  P6  1  0.24758813  0.11708299  0.17443465  1
  P  P7  1  0.75241187  0.88291701  0.82556535  1
  P  P8  1  0.29403151  0.43141797  0.30951861  1
  P  P9  1  0.70596849  0.56858203  0.69048139  1
  O  O10  1  0.54265938  0.99671019  0.71719066  1
  O  O11  1  0.72312454  0.87270205  0.99921849  1
  O  O12  1  0.15956479  0.63233476  0.24763936  1
  O  O13  1  0.72855294  0.64857169  0.84241783  1
  O  O14  1  0.00826247  0.94801731  0.75649125  1
  O  O15  1  0.43098741  0.54852618  0.66980106  1
  O  O16  1  0.82660725  0.72402167  0.54513394  1
  O  O17  1  0.56901259  0.45147382  0.33019894  1
  O  O18  1  0.84043521  0.36766524  0.75236064  1
  O  O19  1  0.99173753  0.05198269  0.24350875  1
  O  O20  1  0.27144706  0.35142831  0.15758217  1
  O  O21  1  0.27687546  0.12729795  0.00078151  1
  O  O22  1  0.45734062  0.00328981  0.28280934  1
  O  O23  1  0.17339275  0.27597833  0.45486606  1
