# generated using pymatgen
data_CdGaH14O7F5
_symmetry_space_group_name_H-M   'P 1'
_cell_length_a   5.99730765
_cell_length_b   9.47613401
_cell_length_c   10.13053751
_cell_angle_alpha   107.83633987
_cell_angle_beta   102.01092947
_cell_angle_gamma   95.56215147
_symmetry_Int_Tables_number   1
_chemical_formula_structural   CdGaH14O7F5
_chemical_formula_sum   'Cd2 Ga2 H28 O14 F10'
_cell_volume   528.01997924
_cell_formula_units_Z   2
loop_
 _symmetry_equiv_pos_site_id
 _symmetry_equiv_pos_as_xyz
  1  'x, y, z'
loop_
 _atom_site_type_symbol
 _atom_site_label
 _atom_site_symmetry_multiplicity
 _atom_site_fract_x
 _atom_site_fract_y
 _atom_site_fract_z
 _atom_site_occupancy
  Cd  Cd0  1  0.57564945  0.32040738  0.24919866  1
  Cd  Cd1  1  0.42435055  0.67959262  0.75080134  1
  Ga  Ga2  1  0.94355771  0.17971764  0.75141028  1
  Ga  Ga3  1  0.05644229  0.82028236  0.24858972  1
  H  H4  1  0.10346737  0.40554498  0.58811314  1
  H  H5  1  0.20830979  0.08698186  0.57604166  1
  H  H6  1  0.61741297  0.82897870  0.26787378  1
  H  H7  1  0.25995490  0.50979821  0.92446559  1
  H  H8  1  0.19702300  0.51073266  0.24933694  1
  H  H9  1  0.89653263  0.59445502  0.41188686  1
  H  H10  1  0.60444365  0.85377374  0.57973501  1
  H  H11  1  0.74004510  0.49020179  0.07553441  1
  H  H12  1  0.66921844  0.31662891  0.97608581  1
  H  H13  1  0.16767298  0.38638432  0.09552621  1
  H  H14  1  0.67496267  0.62167881  0.47101118  1
  H  H15  1  0.97094419  0.70993075  0.74691791  1
  H  H16  1  0.33078156  0.68337109  0.02391419  1
  H  H17  1  0.66925980  0.99151922  0.88153561  1
  H  H18  1  0.75648224  0.91341169  0.99528464  1
  H  H19  1  0.37097677  0.73853573  0.48581385  1
  H  H20  1  0.92310917  0.12367324  0.23479183  1
  H  H21  1  0.62902323  0.26146427  0.51418615  1
  H  H22  1  0.07689083  0.87632676  0.76520817  1
  H  H23  1  0.24351776  0.08658831  0.00471536  1
  H  H24  1  0.33074020  0.00848078  0.11846439  1
  H  H25  1  0.32503733  0.37832119  0.52898882  1
  H  H26  1  0.79169021  0.91301814  0.42395834  1
  H  H27  1  0.39555635  0.14622626  0.42026499  1
  H  H28  1  0.80297700  0.48926734  0.75066306  1
  H  H29  1  0.38258703  0.17102130  0.73212622  1
  H  H30  1  0.02905581  0.29006925  0.25308209  1
  H  H31  1  0.83232702  0.61361568  0.90447379  1
  O  O32  1  0.24027494  0.45805649  0.57282349  1
  O  O33  1  0.36637786  0.09704165  0.09130341  1
  O  O34  1  0.78456619  0.59417726  0.79931522  1
  O  O35  1  0.22581671  0.16515668  0.67149394  1
  O  O36  1  0.63362214  0.90295835  0.90869659  1
  O  O37  1  0.75972506  0.54194351  0.42717651  1
  O  O38  1  0.77418329  0.83484332  0.32850606  1
  O  O39  1  0.91884097  0.23089210  0.28539363  1
  O  O40  1  0.08115903  0.76910790  0.71460637  1
  O  O41  1  0.34586040  0.60883344  0.93486065  1
  O  O42  1  0.48294370  0.24813135  0.43991691  1
  O  O43  1  0.51705630  0.75186865  0.56008309  1
  O  O44  1  0.65413960  0.39116656  0.06513935  1
  O  O45  1  0.21543381  0.40582274  0.20068478  1
  F  F46  1  0.14155825  0.67948259  0.34785308  1
  F  F47  1  0.85844175  0.32051741  0.65214692  1
  F  F48  1  0.95874972  0.95179416  0.14632968  1
  F  F49  1  0.22298675  0.98667029  0.41630602  1
  F  F50  1  0.04125028  0.04820584  0.85367032  1
  F  F51  1  0.66074563  0.18089947  0.81796619  1
  F  F52  1  0.89603334  0.65203006  0.08448545  1
  F  F53  1  0.77701325  0.01332971  0.58369398  1
  F  F54  1  0.33925437  0.81910053  0.18203381  1
  F  F55  1  0.10396666  0.34796994  0.91551455  1
