# generated using pymatgen
data_Bi2SeO6
_symmetry_space_group_name_H-M   'P 1'
_cell_length_a   5.36883135
_cell_length_b   8.49876797
_cell_length_c   5.37973517
_cell_angle_alpha   90.00033617
_cell_angle_beta   89.99962669
_cell_angle_gamma   108.39967517
_symmetry_Int_Tables_number   1
_chemical_formula_structural   Bi2SeO6
_chemical_formula_sum   'Bi4 Se2 O12'
_cell_volume   232.92007338
_cell_formula_units_Z   2
loop_
 _symmetry_equiv_pos_site_id
 _symmetry_equiv_pos_as_xyz
  1  'x, y, z'
loop_
 _atom_site_type_symbol
 _atom_site_label
 _atom_site_symmetry_multiplicity
 _atom_site_fract_x
 _atom_site_fract_y
 _atom_site_fract_z
 _atom_site_occupancy
  Bi  Bi0  1  0.16863338  0.33690915  0.50210949  1
  Bi  Bi1  1  0.66862936  0.33691017  0.99790151  1
  Bi  Bi2  1  0.33133900  0.66302165  0.00213884  1
  Bi  Bi3  1  0.83134503  0.66302470  0.49787604  1
  Se  Se4  1  -0.00002232  0.00016716  0.00013808  1
  Se  Se5  1  0.50001044  0.00024609  0.50007282  1
  O  O6  1  0.28216947  0.06535208  0.74966773  1
  O  O7  1  0.10557069  0.21170984  0.07028975  1
  O  O8  1  0.78211703  0.06535008  0.75025213  1
  O  O9  1  0.60557700  0.21173233  0.42968233  1
  O  O10  1  0.00013738  0.50017615  0.75001026  1
  O  O11  1  0.99991104  0.49988316  0.25000632  1
  O  O12  1  0.50013321  0.50017917  0.74999067  1
  O  O13  1  0.49990499  0.49988724  0.24999663  1
  O  O14  1  0.39438108  0.78814021  0.57030707  1
  O  O15  1  0.21786793  0.93459787  0.24972220  1
  O  O16  1  0.89438862  0.78812103  0.92965021  1
  O  O17  1  0.71790767  0.93459289  0.25018791  1
