# generated using pymatgen
data_NaSrCrF6
_symmetry_space_group_name_H-M   'P 1'
_cell_length_a   5.68165112
_cell_length_b   9.36479882
_cell_length_c   9.84490999
_cell_angle_alpha   90.00000000
_cell_angle_beta   93.70223507
_cell_angle_gamma   90.00000000
_symmetry_Int_Tables_number   1
_chemical_formula_structural   NaSrCrF6
_chemical_formula_sum   'Na4 Sr4 Cr4 F24'
_cell_volume   522.73007609
_cell_formula_units_Z   4
loop_
 _symmetry_equiv_pos_site_id
 _symmetry_equiv_pos_as_xyz
  1  'x, y, z'
loop_
 _atom_site_type_symbol
 _atom_site_label
 _atom_site_symmetry_multiplicity
 _atom_site_fract_x
 _atom_site_fract_y
 _atom_site_fract_z
 _atom_site_occupancy
  F  F0  1  0.99889705  0.97500578  0.14857523  1
  F  F1  1  0.00110295  0.47500578  0.35142477  1
  F  F2  1  0.00110295  0.02499422  0.85142477  1
  F  F3  1  0.99889705  0.52499422  0.64857523  1
  F  F4  1  0.47328173  0.31701255  0.87368372  1
  F  F5  1  0.52671827  0.81701255  0.62631628  1
  F  F6  1  0.52671827  0.68298745  0.12631628  1
  F  F7  1  0.47328173  0.18298745  0.37368372  1
  F  F8  1  0.68001540  0.08768563  0.62574846  1
  F  F9  1  0.31998460  0.58768563  0.87425154  1
  F  F10  1  0.31998460  0.91231437  0.37425154  1
  F  F11  1  0.68001540  0.41231437  0.12574846  1
  F  F12  1  0.46663469  0.47138972  0.63691149  1
  F  F13  1  0.53336531  0.97138972  0.86308851  1
  F  F14  1  0.53336531  0.52861028  0.36308851  1
  F  F15  1  0.46663469  0.02861028  0.13691149  1
  F  F16  1  0.86411158  0.75897050  0.85013175  1
  F  F17  1  0.13588842  0.25897050  0.64986825  1
  F  F18  1  0.13588842  0.24102950  0.14986825  1
  F  F19  1  0.86411158  0.74102950  0.35013175  1
  F  F20  1  0.99537457  0.37166859  0.89230069  1
  F  F21  1  0.00462543  0.87166859  0.60769931  1
  F  F22  1  0.00462543  0.62833141  0.10769931  1
  F  F23  1  0.99537457  0.12833141  0.39230069  1
  Na  Na24  1  0.72260997  0.95295277  0.39761866  1
  Na  Na25  1  0.27739003  0.45295277  0.10238134  1
  Na  Na26  1  0.27739003  0.04704723  0.60238134  1
  Na  Na27  1  0.72260997  0.54704723  0.89761866  1
  Cr  Cr28  1  0.23143168  0.08185989  0.26424161  1
  Cr  Cr29  1  0.76856832  0.58185989  0.23575839  1
  Cr  Cr30  1  0.76856832  0.91814011  0.73575839  1
  Cr  Cr31  1  0.23143168  0.41814011  0.76424161  1
  Sr  Sr32  1  0.23488079  0.67304058  0.49064161  1
  Sr  Sr33  1  0.76511921  0.17304058  0.00935839  1
  Sr  Sr34  1  0.76511921  0.32695942  0.50935839  1
  Sr  Sr35  1  0.23488079  0.82695942  0.99064161  1
