# generated using pymatgen
data_As3Pb2ClO6
_symmetry_space_group_name_H-M   'P 1'
_cell_length_a   5.46680188
_cell_length_b   8.40169881
_cell_length_c   19.93165144
_cell_angle_alpha   90.00000000
_cell_angle_beta   90.00000000
_cell_angle_gamma   90.00000000
_symmetry_Int_Tables_number   1
_chemical_formula_structural   As3Pb2ClO6
_chemical_formula_sum   'As12 Pb8 Cl4 O24'
_cell_volume   915.46917873
_cell_formula_units_Z   4
loop_
 _symmetry_equiv_pos_site_id
 _symmetry_equiv_pos_as_xyz
  1  'x, y, z'
loop_
 _atom_site_type_symbol
 _atom_site_label
 _atom_site_symmetry_multiplicity
 _atom_site_fract_x
 _atom_site_fract_y
 _atom_site_fract_z
 _atom_site_occupancy
  As  As0  1  0.75000000  0.96048755  0.17708107  1
  As  As1  1  0.25000000  0.68764027  0.45605990  1
  As  As2  1  0.75000000  0.23973246  0.83285449  1
  As  As3  1  0.25000000  0.46048755  0.32291893  1
  As  As4  1  0.25000000  0.76026754  0.16714551  1
  As  As5  1  0.25000000  0.81235973  0.95605990  1
  As  As6  1  0.75000000  0.53951245  0.67708107  1
  As  As7  1  0.75000000  0.31235973  0.54394010  1
  As  As8  1  0.75000000  0.26026754  0.33285449  1
  As  As9  1  0.25000000  0.03951245  0.82291893  1
  As  As10  1  0.75000000  0.18764027  0.04394010  1
  As  As11  1  0.25000000  0.73973246  0.66714551  1
  Pb  Pb12  1  0.25000000  0.15635825  0.64126116  1
  Pb  Pb13  1  0.75000000  0.61039894  0.05871696  1
  Pb  Pb14  1  0.25000000  0.38960106  0.94128304  1
  Pb  Pb15  1  0.75000000  0.84364175  0.35873884  1
  Pb  Pb16  1  0.25000000  0.34364175  0.14126116  1
  Pb  Pb17  1  0.75000000  0.65635825  0.85873884  1
  Pb  Pb18  1  0.25000000  0.11039894  0.44128304  1
  Pb  Pb19  1  0.75000000  0.88960106  0.55871696  1
  Cl  Cl20  1  0.75000000  0.95175955  0.71297119  1
  Cl  Cl21  1  0.75000000  0.54824045  0.21297119  1
  Cl  Cl22  1  0.25000000  0.45175955  0.78702881  1
  Cl  Cl23  1  0.25000000  0.04824045  0.28702881  1
  O  O24  1  0.50857660  0.16772563  0.54645172  1
  O  O25  1  0.00857660  0.66772563  0.95354828  1
  O  O26  1  0.25000000  0.60781838  0.10536585  1
  O  O27  1  0.00334689  0.12501858  0.87448173  1
  O  O28  1  0.75000000  0.34543699  0.63761091  1
  O  O29  1  0.25000000  0.65456301  0.36238909  1
  O  O30  1  0.25000000  0.84543699  0.86238909  1
  O  O31  1  0.00857660  0.83227437  0.45354828  1
  O  O32  1  0.50334689  0.87498142  0.12551827  1
  O  O33  1  0.25000000  0.89218162  0.60536585  1
  O  O34  1  0.99142340  0.33227437  0.04645172  1
  O  O35  1  0.75000000  0.15456301  0.13761091  1
  O  O36  1  0.49142340  0.66772563  0.95354828  1
  O  O37  1  0.99665311  0.87498142  0.12551827  1
  O  O38  1  0.49665311  0.37498142  0.37448173  1
  O  O39  1  0.75000000  0.10781838  0.39463415  1
  O  O40  1  0.99665311  0.62501858  0.62551827  1
  O  O41  1  0.99142340  0.16772563  0.54645172  1
  O  O42  1  0.49142340  0.83227437  0.45354828  1
  O  O43  1  0.50857660  0.33227437  0.04645172  1
  O  O44  1  0.00334689  0.37498142  0.37448173  1
  O  O45  1  0.49665311  0.12501858  0.87448173  1
  O  O46  1  0.75000000  0.39218162  0.89463415  1
  O  O47  1  0.50334689  0.62501858  0.62551827  1
