# generated using pymatgen
data_K3LiIrO4
_symmetry_space_group_name_H-M   'P 1'
_cell_length_a   5.99232158
_cell_length_b   7.31945604
_cell_length_c   7.31945609
_cell_angle_alpha   84.54074892
_cell_angle_beta   79.66106361
_cell_angle_gamma   79.66106452
_symmetry_Int_Tables_number   1
_chemical_formula_structural   K3LiIrO4
_chemical_formula_sum   'K6 Li2 Ir2 O8'
_cell_volume   310.03729544
_cell_formula_units_Z   2
loop_
 _symmetry_equiv_pos_site_id
 _symmetry_equiv_pos_as_xyz
  1  'x, y, z'
loop_
 _atom_site_type_symbol
 _atom_site_label
 _atom_site_symmetry_multiplicity
 _atom_site_fract_x
 _atom_site_fract_y
 _atom_site_fract_z
 _atom_site_occupancy
  K  K0  1  0.97393234  0.93428126  0.75631186  1
  K  K1  1  0.75000000  0.40520513  0.59479487  1
  K  K2  1  0.47393234  0.75631186  0.93428126  1
  K  K3  1  0.52606766  0.24368814  0.06571874  1
  K  K4  1  0.02606766  0.06571874  0.24368814  1
  K  K5  1  0.25000000  0.59479487  0.40520513  1
  Li  Li6  1  0.25000000  0.26817544  0.73182456  1
  Li  Li7  1  0.75000000  0.73182456  0.26817544  1
  Ir  Ir8  1  0.00000000  0.50000000  0.00000000  1
  Ir  Ir9  1  0.50000000  0.00000000  0.50000000  1
  O  O10  1  0.75373616  0.79630790  0.51946398  1
  O  O11  1  0.53013483  0.08681178  0.73492029  1
  O  O12  1  0.25373616  0.51946398  0.79630790  1
  O  O13  1  0.03013483  0.73492029  0.08681178  1
  O  O14  1  0.46986517  0.91318822  0.26507971  1
  O  O15  1  0.96986517  0.26507971  0.91318822  1
  O  O16  1  0.74626384  0.48053602  0.20369210  1
  O  O17  1  0.24626384  0.20369210  0.48053602  1
