# generated using pymatgen
data_Mn3V6(FeO6)4
_symmetry_space_group_name_H-M   'P 1'
_cell_length_a   6.78847727
_cell_length_b   8.30979059
_cell_length_c   10.01128096
_cell_angle_alpha   105.87908206
_cell_angle_beta   105.48435908
_cell_angle_gamma   102.76739016
_symmetry_Int_Tables_number   1
_chemical_formula_structural   Mn3V6(FeO6)4
_chemical_formula_sum   'Mn3 V6 Fe4 O24'
_cell_volume   496.44201297
_cell_formula_units_Z   1
loop_
 _symmetry_equiv_pos_site_id
 _symmetry_equiv_pos_as_xyz
  1  'x, y, z'
loop_
 _atom_site_type_symbol
 _atom_site_label
 _atom_site_symmetry_multiplicity
 _atom_site_fract_x
 _atom_site_fract_y
 _atom_site_fract_z
 _atom_site_occupancy
  Mn  Mn0  1  0.78344051  0.79577406  0.29702560  1
  Mn  Mn1  1  0.50000000  0.00000000  0.00000000  1
  Mn  Mn2  1  0.21655949  0.20422594  0.70297440  1
  V  V3  1  0.60928927  0.59827207  0.83411594  1
  V  V4  1  0.90037204  0.23492286  0.36823611  1
  V  V5  1  0.09962796  0.76507714  0.63176389  1
  V  V6  1  0.71866968  0.15795743  0.76619643  1
  V  V7  1  0.28133032  0.84204257  0.23380357  1
  V  V8  1  0.39071073  0.40172793  0.16588406  1
  Fe  Fe9  1  0.54295677  0.70642570  0.51828460  1
  Fe  Fe10  1  0.12303505  0.54640777  0.89550427  1
  Fe  Fe11  1  0.45704323  0.29357430  0.48171540  1
  Fe  Fe12  1  0.87696495  0.45359223  0.10449573  1
  O  O13  1  0.02948545  0.72377051  0.22955334  1
  O  O14  1  0.06353037  0.63576465  0.73797778  1
  O  O15  1  0.32123624  0.05912846  0.31818840  1
  O  O16  1  0.93646963  0.36423535  0.26202222  1
  O  O17  1  0.63883381  0.81065232  0.91654028  1
  O  O18  1  0.15058588  0.25031060  0.49714667  1
  O  O19  1  0.67876376  0.94087154  0.68181160  1
  O  O20  1  0.97051455  0.27622949  0.77044666  1
  O  O21  1  0.71032540  0.20332774  0.94901427  1
  O  O22  1  0.51391972  0.21763450  0.65885644  1
  O  O23  1  0.26190328  0.70462235  0.53474313  1
  O  O24  1  0.48608028  0.78236550  0.34114356  1
  O  O25  1  0.37364805  0.47739470  0.84943091  1
  O  O26  1  0.73809672  0.29537765  0.46525687  1
  O  O27  1  0.42386573  0.44582732  0.35607808  1
  O  O28  1  0.62635195  0.52260530  0.15056909  1
  O  O29  1  0.84941412  0.74968940  0.50285333  1
  O  O30  1  0.28967460  0.79667226  0.05098573  1
  O  O31  1  0.23458054  0.98036567  0.75608052  1
  O  O32  1  0.36116619  0.18934768  0.08345972  1
  O  O33  1  0.57613427  0.55417268  0.64392192  1
  O  O34  1  0.83467953  0.54004859  0.92606682  1
  O  O35  1  0.76541946  0.01963433  0.24391948  1
  O  O36  1  0.16532047  0.45995141  0.07393318  1
