# generated using pymatgen
data_ZrMnTlF7
_symmetry_space_group_name_H-M   'P 1'
_cell_length_a   6.53461731
_cell_length_b   6.56085312
_cell_length_c   8.41330949
_cell_angle_alpha   90.00000000
_cell_angle_beta   90.00000000
_cell_angle_gamma   117.58134611
_symmetry_Int_Tables_number   1
_chemical_formula_structural   ZrMnTlF7
_chemical_formula_sum   'Zr2 Mn2 Tl2 F14'
_cell_volume   319.70890146
_cell_formula_units_Z   2
loop_
 _symmetry_equiv_pos_site_id
 _symmetry_equiv_pos_as_xyz
  1  'x, y, z'
loop_
 _atom_site_type_symbol
 _atom_site_label
 _atom_site_symmetry_multiplicity
 _atom_site_fract_x
 _atom_site_fract_y
 _atom_site_fract_z
 _atom_site_occupancy
  Zr  Zr0  1  0.68918882  0.80736432  0.75000000  1
  Zr  Zr1  1  0.31081118  0.19263568  0.25000000  1
  Mn  Mn2  1  0.30934854  0.18813350  0.75000000  1
  Mn  Mn3  1  0.69065146  0.81186650  0.25000000  1
  Tl  Tl4  1  0.00000000  0.50000000  0.50000000  1
  Tl  Tl5  1  0.00000000  0.50000000  0.00000000  1
  F  F6  1  0.94410000  0.15624964  0.75000000  1
  F  F7  1  0.30418680  0.19892225  0.49429016  1
  F  F8  1  0.97134718  0.16660100  0.25000000  1
  F  F9  1  0.33663776  0.53066033  0.25000000  1
  F  F10  1  0.02865282  0.83339900  0.75000000  1
  F  F11  1  0.69581320  0.80107775  0.50570984  1
  F  F12  1  0.69581320  0.80107775  0.99429016  1
  F  F13  1  0.50410855  0.99219270  0.75000000  1
  F  F14  1  0.66106823  0.44598112  0.25000000  1
  F  F15  1  0.30418680  0.19892225  0.00570984  1
  F  F16  1  0.49589145  0.00780730  0.25000000  1
  F  F17  1  0.66336224  0.46933967  0.75000000  1
  F  F18  1  0.33893177  0.55401888  0.75000000  1
  F  F19  1  0.05590000  0.84375036  0.25000000  1
