# generated using pymatgen
data_CaAsH5O6
_symmetry_space_group_name_H-M   'P 1'
_cell_length_a   6.23597397
_cell_length_b   9.18639734
_cell_length_c   6.15526439
_cell_angle_alpha   83.83850120
_cell_angle_beta   108.43484160
_cell_angle_gamma   109.84114043
_symmetry_Int_Tables_number   1
_chemical_formula_structural   CaAsH5O6
_chemical_formula_sum   'Ca2 As2 H10 O12'
_cell_volume   314.65885223
_cell_formula_units_Z   2
loop_
 _symmetry_equiv_pos_site_id
 _symmetry_equiv_pos_as_xyz
  1  'x, y, z'
loop_
 _atom_site_type_symbol
 _atom_site_label
 _atom_site_symmetry_multiplicity
 _atom_site_fract_x
 _atom_site_fract_y
 _atom_site_fract_z
 _atom_site_occupancy
  Ca  Ca0  1  0.11196924  0.65527318  0.12056207  1
  Ca  Ca1  1  0.45669606  0.34472682  0.62056207  1
  As  As2  1  0.51003473  0.63984465  0.91641299  1
  As  As3  1  0.87019009  0.36015535  0.41641299  1
  H  H4  1  0.09421872  0.82820238  0.63337749  1
  H  H5  1  0.17069951  0.96749121  0.29997684  1
  H  H6  1  0.49922066  0.14867830  0.28564276  1
  H  H7  1  0.04733576  0.14824725  0.76048768  1
  H  H8  1  0.20320830  0.03250879  0.79997684  1
  H  H9  1  0.35054237  0.85132170  0.78564276  1
  H  H10  1  0.63466023  0.63339388  0.30494810  1
  H  H11  1  0.26601634  0.17179762  0.13337749  1
  H  H12  1  0.00126535  0.36660612  0.80494810  1
  H  H13  1  0.89908851  0.85175275  0.26048768  1
  O  O14  1  0.18844482  0.85497302  0.79516152  1
  O  O15  1  0.06802557  0.85517100  0.30384806  1
  O  O16  1  0.22838687  0.51987142  0.90717528  1
  O  O17  1  0.15652660  0.46005719  0.41150986  1
  O  O18  1  0.21285456  0.14482900  0.80384806  1
  O  O19  1  0.53947487  0.79618727  0.74338882  1
  O  O20  1  0.58733297  0.71875837  0.20236953  1
  O  O21  1  0.33347180  0.14502698  0.29516152  1
  O  O22  1  0.70851445  0.48012858  0.40717528  1
  O  O23  1  0.86857461  0.28124163  0.70236953  1
  O  O24  1  0.69646941  0.53994181  0.91150986  1
  O  O25  1  0.74328760  0.20381273  0.24338882  1
