# generated using pymatgen
data_Ba7Al4Ge9
_symmetry_space_group_name_H-M   'P 1'
_cell_length_a   6.80165406
_cell_length_b   6.80154953
_cell_length_c   13.73183016
_cell_angle_alpha   101.81729512
_cell_angle_beta   101.81856869
_cell_angle_gamma   99.96055936
_symmetry_Int_Tables_number   1
_chemical_formula_structural   Ba7Al4Ge9
_chemical_formula_sum   'Ba7 Al4 Ge9'
_cell_volume   593.10303458
_cell_formula_units_Z   1
loop_
 _symmetry_equiv_pos_site_id
 _symmetry_equiv_pos_as_xyz
  1  'x, y, z'
loop_
 _atom_site_type_symbol
 _atom_site_label
 _atom_site_symmetry_multiplicity
 _atom_site_fract_x
 _atom_site_fract_y
 _atom_site_fract_z
 _atom_site_occupancy
  Ba  Ba0  1  0.62792407  0.62789703  -0.00000273  1
  Ba  Ba1  1  0.16958070  0.61894394  0.20600859  1
  Ba  Ba2  1  0.04417821  0.54418602  0.49999502  1
  Ba  Ba3  1  0.61894865  0.16955332  0.20601784  1
  Ba  Ba4  1  0.96356921  0.41294971  0.79399549  1
  Ba  Ba5  1  0.54419715  0.04419158  0.49999940  1
  Ba  Ba6  1  0.41293252  0.96358463  0.79398802  1
  Al  Al7  1  0.58724747  0.58724186  0.59881516  1
  Al  Al8  1  0.98830821  0.98834744  0.40115161  1
  Al  Al9  1  0.05897756  0.05896955  0.12083073  1
  Al  Al10  1  0.93839953  0.93839915  0.87918886  1
  Ge  Ge11  1  0.70023952  0.70024878  0.28937045  1
  Ge  Ge12  1  0.10098421  0.10095817  0.59423292  1
  Ge  Ge13  1  0.82694560  0.21182063  -0.00000324  1
  Ge  Ge14  1  0.19390311  0.19388743  0.31107987  1
  Ge  Ge15  1  0.88282981  0.88282739  0.68891684  1
  Ge  Ge16  1  0.21181977  0.82693998  0.00002157  1
  Ge  Ge17  1  0.23868437  0.23871823  0.99999003  1
  Ge  Ge18  1  0.41087556  0.41089927  0.71062713  1
  Ge  Ge19  1  0.50675477  0.50673591  0.40577646  1
