# generated using pymatgen
data_Ni3B7ClO13
_symmetry_space_group_name_H-M   'P 1'
_cell_length_a   8.58584320
_cell_length_b   8.60007001
_cell_length_c   12.15930656
_cell_angle_alpha   90.00000000
_cell_angle_beta   90.00000000
_cell_angle_gamma   90.00000000
_symmetry_Int_Tables_number   1
_chemical_formula_structural   Ni3B7ClO13
_chemical_formula_sum   'Ni12 B28 Cl4 O52'
_cell_volume   897.82924498
_cell_formula_units_Z   4
loop_
 _symmetry_equiv_pos_site_id
 _symmetry_equiv_pos_as_xyz
  1  'x, y, z'
loop_
 _atom_site_type_symbol
 _atom_site_label
 _atom_site_symmetry_multiplicity
 _atom_site_fract_x
 _atom_site_fract_y
 _atom_site_fract_z
 _atom_site_occupancy
  Ni  Ni0  1  0.25025084  0.75628277  0.28644980  1
  Ni  Ni1  1  0.46760301  0.98293695  0.00909642  1
  Ni  Ni2  1  0.53239699  0.48293695  0.00909642  1
  Ni  Ni3  1  0.46760301  0.51706305  0.50909642  1
  Ni  Ni4  1  0.03269114  0.51700387  0.50717506  1
  Ni  Ni5  1  0.03269114  0.98299613  0.00717506  1
  Ni  Ni6  1  0.74974916  0.25628277  0.28644980  1
  Ni  Ni7  1  0.74974916  0.24371723  0.78644980  1
  Ni  Ni8  1  0.25025084  0.74371723  0.78644980  1
  Ni  Ni9  1  0.53239699  0.01706305  0.50909642  1
  Ni  Ni10  1  0.96730886  0.01700387  0.50717506  1
  Ni  Ni11  1  0.96730886  0.48299613  0.00717506  1
  B  B12  1  0.24584314  0.24412267  0.51331803  1
  B  B13  1  0.40313374  0.24613143  0.34141839  1
  B  B14  1  0.24992512  0.45507426  0.15949033  1
  B  B15  1  0.09610112  0.25215490  0.84040643  1
  B  B16  1  0.59686626  0.75386857  0.84141839  1
  B  B17  1  0.24584314  0.25587733  0.01331803  1
  B  B18  1  0.75415686  0.75587733  0.01331803  1
  B  B19  1  0.75073738  0.90678700  0.68790823  1
  B  B20  1  0.75415686  0.74412267  0.51331803  1
  B  B21  1  0.75007488  0.95507426  0.15949033  1
  B  B22  1  0.49829290  0.99968495  0.76092986  1
  B  B23  1  0.24992512  0.04492574  0.65949033  1
  B  B24  1  0.09610112  0.24784510  0.34040643  1
  B  B25  1  0.59686626  0.74613143  0.34141839  1
  B  B26  1  0.75073738  0.59321300  0.18790823  1
  B  B27  1  0.90389888  0.75215490  0.84040643  1
  B  B28  1  0.75007488  0.54492574  0.65949033  1
  B  B29  1  0.24926262  0.09321300  0.18790823  1
  B  B30  1  0.50170710  0.49968495  0.76092986  1
  B  B31  1  0.00328824  0.99754291  0.76036893  1
  B  B32  1  0.00328824  0.50245709  0.26036893  1
  B  B33  1  0.99671176  0.49754291  0.76036893  1
  B  B34  1  0.40313374  0.25386857  0.84141839  1
  B  B35  1  0.49829290  0.50031505  0.26092986  1
  B  B36  1  0.90389888  0.74784510  0.34040643  1
  B  B37  1  0.24926262  0.40678700  0.68790823  1
  B  B38  1  0.50170710  0.00031505  0.26092986  1
  B  B39  1  0.99671176  0.00245709  0.26036893  1
  Cl  Cl40  1  0.74930531  0.29589635  0.98903508  1
  Cl  Cl41  1  0.74930531  0.20410365  0.48903508  1
  Cl  Cl42  1  0.25069469  0.70410365  0.48903508  1
  Cl  Cl43  1  0.25069469  0.79589635  0.98903508  1
  O  O44  1  0.74961968  0.76826016  0.77142175  1
  O  O45  1  0.05949797  0.41240117  0.35522892  1
  O  O46  1  0.94050203  0.91240117  0.35522892  1
  O  O47  1  0.16203926  0.96625865  0.24021818  1
  O  O48  1  0.33108865  0.54143371  0.23623829  1
  O  O49  1  0.59138442  0.95208768  0.66545865  1
  O  O50  1  0.52044436  0.16630917  0.78101461  1
  O  O51  1  0.36324753  0.17745011  0.94461818  1
  O  O52  1  0.47955564  0.66630917  0.78101461  1
  O  O53  1  0.32964904  0.38222626  0.07537894  1
  O  O54  1  0.40861558  0.45208768  0.66545865  1
  O  O55  1  0.74961968  0.73173984  0.27142175  1
  O  O56  1  0.83796074  0.03374135  0.74021818  1
  O  O57  1  0.66891135  0.45856629  0.73623829  1
  O  O58  1  0.83796074  0.46625865  0.24021818  1
  O  O59  1  0.91065527  0.53659045  0.65602603  1
  O  O60  1  0.25038032  0.23173984  0.27142175  1
  O  O61  1  0.02717504  0.83084134  0.78089093  1
  O  O62  1  0.17277625  0.35900210  0.58632806  1
  O  O63  1  0.25038032  0.26826016  0.77142175  1
  O  O64  1  0.54284412  0.91303839  0.85988519  1
  O  O65  1  0.63675247  0.82254989  0.44461818  1
  O  O66  1  0.12386063  0.17217520  0.44589770  1
  O  O67  1  0.63675247  0.67745011  0.94461818  1
  O  O68  1  0.82722375  0.64099790  0.08632806  1
  O  O69  1  0.47955564  0.83369083  0.28101461  1
  O  O70  1  0.97282496  0.16915866  0.28089093  1
  O  O71  1  0.33108865  0.95856629  0.73623829  1
  O  O72  1  0.87613937  0.82782480  0.94589770  1
  O  O73  1  0.97282496  0.33084134  0.78089093  1
  O  O74  1  0.54284412  0.58696161  0.35988519  1
  O  O75  1  0.67035096  0.88222626  0.07537894  1
  O  O76  1  0.40861558  0.04791232  0.16545865  1
  O  O77  1  0.91065527  0.96340955  0.15602603  1
  O  O78  1  0.08934473  0.46340955  0.15602603  1
  O  O79  1  0.87613937  0.67217520  0.44589770  1
  O  O80  1  0.12386063  0.32782480  0.94589770  1
  O  O81  1  0.45715588  0.08696061  0.35988519  1
  O  O82  1  0.36324753  0.32254989  0.44461818  1
  O  O83  1  0.94050203  0.58759883  0.85522892  1
  O  O84  1  0.17277625  0.14099790  0.08632806  1
  O  O85  1  0.52044436  0.33369083  0.28101461  1
  O  O86  1  0.32964904  0.11777374  0.57537894  1
  O  O87  1  0.05949797  0.08759883  0.85522892  1
  O  O88  1  0.16203926  0.53374135  0.74021818  1
  O  O89  1  0.82722375  0.85900210  0.58632806  1
  O  O90  1  0.66891135  0.04143371  0.23623829  1
  O  O91  1  0.02717504  0.66915866  0.28089093  1
  O  O92  1  0.45715588  0.41303939  0.85988519  1
  O  O93  1  0.08934473  0.03659045  0.65602603  1
  O  O94  1  0.67035096  0.61777374  0.57537894  1
  O  O95  1  0.59138442  0.54791232  0.16545865  1
