# generated using pymatgen
data_Ba2V4Cd3O15
_symmetry_space_group_name_H-M   'P 1'
_cell_length_a   7.33627614
_cell_length_b   10.12252991
_cell_length_c   19.96722343
_cell_angle_alpha   90.00000000
_cell_angle_beta   90.00000000
_cell_angle_gamma   90.00000000
_symmetry_Int_Tables_number   1
_chemical_formula_structural   Ba2V4Cd3O15
_chemical_formula_sum   'Ba8 V16 Cd12 O60'
_cell_volume   1482.79945013
_cell_formula_units_Z   4
loop_
 _symmetry_equiv_pos_site_id
 _symmetry_equiv_pos_as_xyz
  1  'x, y, z'
loop_
 _atom_site_type_symbol
 _atom_site_label
 _atom_site_symmetry_multiplicity
 _atom_site_fract_x
 _atom_site_fract_y
 _atom_site_fract_z
 _atom_site_occupancy
  Ba  Ba0  1  0.04911333  0.75404955  0.20180753  1
  Ba  Ba1  1  0.45088667  0.24595045  0.70180753  1
  Ba  Ba2  1  0.26635837  0.37116301  0.50189175  1
  Ba  Ba3  1  0.23364163  0.62883699  0.00189175  1
  Ba  Ba4  1  0.73364163  0.87116301  0.99810825  1
  Ba  Ba5  1  0.95088667  0.25404955  0.29819247  1
  Ba  Ba6  1  0.54911333  0.74595045  0.79819247  1
  Ba  Ba7  1  0.76635837  0.12883699  0.49810825  1
  V  V8  1  0.17124604  0.56444822  0.34767887  1
  V  V9  1  0.76982615  0.47570229  0.49322700  1
  V  V10  1  0.55767197  0.78140414  0.16686066  1
  V  V11  1  0.82875396  0.06444822  0.15232113  1
  V  V12  1  0.14713724  0.40201356  0.13543099  1
  V  V13  1  0.73017385  0.52429771  0.99322700  1
  V  V14  1  0.23017385  0.97570229  0.00677300  1
  V  V15  1  0.67124604  0.93555178  0.65232113  1
  V  V16  1  0.26982615  0.02429771  0.50677300  1
  V  V17  1  0.32875396  0.43555178  0.84767887  1
  V  V18  1  0.85286276  0.90201356  0.36456901  1
  V  V19  1  0.64713724  0.09798644  0.86456901  1
  V  V20  1  0.94232803  0.21859586  0.66686066  1
  V  V21  1  0.05767197  0.71859586  0.83313934  1
  V  V22  1  0.35286276  0.59798644  0.63543099  1
  V  V23  1  0.44232803  0.28140414  0.33313934  1
  Cd  Cd24  1  0.62832905  0.40779515  0.16737084  1
  Cd  Cd25  1  0.93198724  0.24239332  0.98749278  1
  Cd  Cd26  1  0.12832905  0.09220485  0.83262916  1
  Cd  Cd27  1  0.35069065  0.09716898  0.17940214  1
  Cd  Cd28  1  0.43198724  0.25760668  0.01250722  1
  Cd  Cd29  1  0.06801276  0.74239332  0.51250722  1
  Cd  Cd30  1  0.85069065  0.40283102  0.82059786  1
  Cd  Cd31  1  0.87167095  0.59220485  0.66737084  1
  Cd  Cd32  1  0.64930935  0.59716898  0.32059786  1
  Cd  Cd33  1  0.56801276  0.75760668  0.48749278  1
  Cd  Cd34  1  0.37167095  0.90779515  0.33262916  1
  Cd  Cd35  1  0.14930935  0.90283102  0.67940214  1
  O  O36  1  0.58952590  0.62730877  0.94902123  1
  O  O37  1  0.20003961  0.56642967  0.13416696  1
  O  O38  1  0.89016602  0.62600874  0.78999134  1
  O  O39  1  0.64573435  0.15048909  0.94837859  1
  O  O40  1  0.66171826  0.88779787  0.57103517  1
  O  O41  1  0.13838738  0.86636382  0.79815341  1
  O  O42  1  0.24455889  0.38940675  0.34629493  1
  O  O43  1  0.98295258  0.74814295  0.91044501  1
  O  O44  1  0.83124916  0.17792372  0.82341383  1
  O  O45  1  0.29996039  0.43357033  0.63416696  1
  O  O46  1  0.96506708  0.57024908  0.30577586  1
  O  O47  1  0.60868172  0.42008177  0.05227894  1
  O  O48  1  0.01704742  0.24814295  0.58955499  1
  O  O49  1  0.66923557  0.15738435  0.19385126  1
  O  O50  1  0.36161262  0.13363618  0.29815341  1
  O  O51  1  0.93933778  0.37680108  0.17608034  1
  O  O52  1  0.70003961  0.93357033  0.86583304  1
  O  O53  1  0.86927999  0.62330496  0.03883240  1
  O  O54  1  0.08952590  0.87269123  0.05097877  1
  O  O55  1  0.16875084  0.67792372  0.67658617  1
  O  O56  1  0.10868172  0.07991823  0.94772106  1
  O  O57  1  0.43933778  0.12319892  0.82391966  1
  O  O58  1  0.25544111  0.61059325  0.84629493  1
  O  O59  1  0.39016602  0.87399126  0.21000866  1
  O  O60  1  0.56066222  0.62319892  0.67608034  1
  O  O61  1  0.10983398  0.12600874  0.71000866  1
  O  O62  1  0.33076443  0.65738435  0.30614874  1
  O  O63  1  0.41047410  0.12730877  0.55097877  1
  O  O64  1  0.36927999  0.87669504  0.96116760  1
  O  O65  1  0.48295258  0.75185705  0.08955499  1
  O  O66  1  0.03493292  0.07024908  0.19422414  1
  O  O67  1  0.63072001  0.37669504  0.53883240  1
  O  O68  1  0.63677938  0.57163811  0.43500741  1
  O  O69  1  0.66875084  0.82207628  0.32341383  1
  O  O70  1  0.33828174  0.38779787  0.92896483  1
  O  O71  1  0.85426565  0.84951091  0.44837859  1
  O  O72  1  0.33124916  0.32207628  0.17658617  1
  O  O73  1  0.89131828  0.57991823  0.55227894  1
  O  O74  1  0.86322062  0.42836189  0.93500741  1
  O  O75  1  0.83828174  0.11220213  0.07103517  1
  O  O76  1  0.13677938  0.92836189  0.56499259  1
  O  O77  1  0.53493292  0.42975092  0.80577586  1
  O  O78  1  0.63838738  0.63363618  0.20184659  1
  O  O79  1  0.14573435  0.34951091  0.05162141  1
  O  O80  1  0.13072001  0.12330496  0.46116760  1
  O  O81  1  0.79996039  0.06642967  0.36583304  1
  O  O82  1  0.16923557  0.34261565  0.80614874  1
  O  O83  1  0.35426565  0.65048909  0.55162141  1
  O  O84  1  0.06066222  0.87680108  0.32391966  1
  O  O85  1  0.83076443  0.84261565  0.69385126  1
  O  O86  1  0.86161262  0.36636382  0.70184659  1
  O  O87  1  0.36322062  0.07163811  0.06499259  1
  O  O88  1  0.60983398  0.37399126  0.28999134  1
  O  O89  1  0.46506708  0.92975092  0.69422414  1
  O  O90  1  0.51704742  0.25185705  0.41044501  1
  O  O91  1  0.91047410  0.37269123  0.44902123  1
  O  O92  1  0.39131828  0.92008177  0.44772106  1
  O  O93  1  0.16171826  0.61220213  0.42896483  1
  O  O94  1  0.75544111  0.88940675  0.15370507  1
  O  O95  1  0.74455889  0.11059325  0.65370507  1
