# generated using pymatgen
data_SrLiFeF6
_symmetry_space_group_name_H-M   'P 1'
_cell_length_a   5.37315137
_cell_length_b   8.92291132
_cell_length_c   10.38543547
_cell_angle_alpha   90.00000000
_cell_angle_beta   92.17244722
_cell_angle_gamma   90.00000000
_symmetry_Int_Tables_number   1
_chemical_formula_structural   SrLiFeF6
_chemical_formula_sum   'Sr4 Li4 Fe4 F24'
_cell_volume   497.56303398
_cell_formula_units_Z   4
loop_
 _symmetry_equiv_pos_site_id
 _symmetry_equiv_pos_as_xyz
  1  'x, y, z'
loop_
 _atom_site_type_symbol
 _atom_site_label
 _atom_site_symmetry_multiplicity
 _atom_site_fract_x
 _atom_site_fract_y
 _atom_site_fract_z
 _atom_site_occupancy
  Sr  Sr0  1  0.24607465  0.29162531  0.49663390  1
  Sr  Sr1  1  0.75392535  0.79162531  0.00336610  1
  Sr  Sr2  1  0.24607465  0.20837469  0.99663390  1
  Sr  Sr3  1  0.75392535  0.70837469  0.50336610  1
  Li  Li4  1  0.28697643  0.92122065  0.73995602  1
  Li  Li5  1  0.71302357  0.42122065  0.76004398  1
  Li  Li6  1  0.71302357  0.07877935  0.26004398  1
  Li  Li7  1  0.28697643  0.57877935  0.23995602  1
  Fe  Fe8  1  0.78328708  0.08469708  0.74059569  1
  Fe  Fe9  1  0.21671292  0.58469708  0.75940431  1
  Fe  Fe10  1  0.78328708  0.41530292  0.24059569  1
  Fe  Fe11  1  0.21671292  0.91530292  0.25940431  1
  F  F12  1  0.39298046  0.73494789  0.86098697  1
  F  F13  1  0.11702499  0.74439168  0.14891334  1
  F  F14  1  0.91552422  0.90700457  0.35761486  1
  F  F15  1  0.88297501  0.25560832  0.85108666  1
  F  F16  1  0.50793268  0.04833286  0.85966942  1
  F  F17  1  0.62548112  0.58110667  0.14616384  1
  F  F18  1  0.37451888  0.08110667  0.35383616  1
  F  F19  1  0.62548112  0.91889333  0.64616384  1
  F  F20  1  0.49206732  0.95166714  0.14033058  1
  F  F21  1  0.99362014  0.96153881  0.86115398  1
  F  F22  1  0.91552422  0.59299543  0.85761486  1
  F  F23  1  0.88297501  0.24439168  0.35108666  1
  F  F24  1  0.08447578  0.09299543  0.64238514  1
  F  F25  1  0.99362014  0.53846119  0.36115398  1
  F  F26  1  0.37451888  0.41889333  0.85383616  1
  F  F27  1  0.00637986  0.03846119  0.13884602  1
  F  F28  1  0.60701954  0.23494789  0.63901303  1
  F  F29  1  0.08447578  0.40700457  0.14238514  1
  F  F30  1  0.00637986  0.46153881  0.63884602  1
  F  F31  1  0.50793268  0.45166714  0.35966942  1
  F  F32  1  0.39298046  0.76505211  0.36098697  1
  F  F33  1  0.49206732  0.54833286  0.64033058  1
  F  F34  1  0.11702499  0.75560832  0.64891334  1
  F  F35  1  0.60701954  0.26505211  0.13901303  1
