# generated using pymatgen
data_BaMo2(PO4)4
_symmetry_space_group_name_H-M   'P 1'
_cell_length_a   8.04205685
_cell_length_b   8.13904994
_cell_length_c   9.75611743
_cell_angle_alpha   91.71403637
_cell_angle_beta   90.00000000
_cell_angle_gamma   90.00000000
_symmetry_Int_Tables_number   1
_chemical_formula_structural   BaMo2(PO4)4
_chemical_formula_sum   'Ba2 Mo4 P8 O32'
_cell_volume   638.29803571
_cell_formula_units_Z   2
loop_
 _symmetry_equiv_pos_site_id
 _symmetry_equiv_pos_as_xyz
  1  'x, y, z'
loop_
 _atom_site_type_symbol
 _atom_site_label
 _atom_site_symmetry_multiplicity
 _atom_site_fract_x
 _atom_site_fract_y
 _atom_site_fract_z
 _atom_site_occupancy
  Ba  Ba0  1  0.50000000  0.50000000  0.50000000  1
  Ba  Ba1  1  0.00000000  0.00000000  0.00000000  1
  Mo  Mo2  1  0.22405487  0.54463115  0.16293806  1
  Mo  Mo3  1  0.77594513  0.45536885  0.83706194  1
  Mo  Mo4  1  0.27594513  0.04463115  0.66293806  1
  Mo  Mo5  1  0.72405487  0.95536885  0.33706194  1
  P  P6  1  0.10313936  0.67480208  0.70944765  1
  P  P7  1  0.60313936  0.82519792  0.79055235  1
  P  P8  1  0.39686064  0.17480208  0.20944765  1
  P  P9  1  0.90774311  0.22088999  0.56620348  1
  P  P10  1  0.40774311  0.27911001  0.93379652  1
  P  P11  1  0.89686064  0.32519792  0.29055235  1
  P  P12  1  0.09225689  0.77911001  0.43379652  1
  P  P13  1  0.59225689  0.72088999  0.06620348  1
  O  O14  1  0.75058835  0.43208627  0.32266138  1
  O  O15  1  0.99887915  0.29698440  0.43623696  1
  O  O16  1  0.80461439  0.35825737  0.63896142  1
  O  O17  1  0.50112085  0.79698440  0.93623696  1
  O  O18  1  0.87674182  0.30055919  0.91926430  1
  O  O19  1  0.24941165  0.56791373  0.67733862  1
  O  O20  1  0.30461439  0.14174263  0.86103858  1
  O  O21  1  0.25058835  0.06791373  0.17733862  1
  O  O22  1  0.02667830  0.39468448  0.19194221  1
  O  O23  1  0.62325818  0.80055919  0.41926430  1
  O  O24  1  0.37674182  0.19944081  0.58073570  1
  O  O25  1  0.12325818  0.69944081  0.08073570  1
  O  O26  1  0.14305744  0.85223684  0.76337547  1
  O  O27  1  0.19538561  0.64174263  0.36103858  1
  O  O28  1  0.28731103  0.41166359  0.98828321  1
  O  O29  1  0.52667830  0.10531552  0.30805779  1
  O  O30  1  0.85694256  0.14776316  0.23662453  1
  O  O31  1  0.35694256  0.35223684  0.26337547  1
  O  O32  1  0.04312360  0.15834368  0.66094152  1
  O  O33  1  0.74941165  0.93208627  0.82266138  1
  O  O34  1  0.97332170  0.60531552  0.80805779  1
  O  O35  1  0.95687640  0.84165632  0.33905848  1
  O  O36  1  0.21268897  0.91166359  0.48828321  1
  O  O37  1  0.78731103  0.08833641  0.51171679  1
  O  O38  1  0.49887915  0.20301560  0.06376304  1
  O  O39  1  0.00112085  0.70301560  0.56376304  1
  O  O40  1  0.64305744  0.64776316  0.73662453  1
  O  O41  1  0.45687640  0.65834368  0.16094152  1
  O  O42  1  0.47332170  0.89468448  0.69194221  1
  O  O43  1  0.69538561  0.85825737  0.13896142  1
  O  O44  1  0.54312360  0.34165632  0.83905848  1
  O  O45  1  0.71268897  0.58833641  0.01171679  1
