# generated using pymatgen
data_TbMoClO4
_symmetry_space_group_name_H-M   'P 1'
_cell_length_a   6.34860574
_cell_length_b   6.34860627
_cell_length_c   6.93922191
_cell_angle_alpha   76.09722612
_cell_angle_beta   76.09722500
_cell_angle_gamma   70.85278166
_symmetry_Int_Tables_number   1
_chemical_formula_structural   TbMoClO4
_chemical_formula_sum   'Tb2 Mo2 Cl2 O8'
_cell_volume   252.46428449
_cell_formula_units_Z   2
loop_
 _symmetry_equiv_pos_site_id
 _symmetry_equiv_pos_as_xyz
  1  'x, y, z'
loop_
 _atom_site_type_symbol
 _atom_site_label
 _atom_site_symmetry_multiplicity
 _atom_site_fract_x
 _atom_site_fract_y
 _atom_site_fract_z
 _atom_site_occupancy
  Tb  Tb0  1  0.22167049  0.22167049  0.88765150  1
  Tb  Tb1  1  0.77832951  0.77832951  0.11234850  1
  Mo  Mo2  1  0.36248041  0.36248041  0.26887716  1
  Mo  Mo3  1  0.63751959  0.63751959  0.73112284  1
  Cl  Cl4  1  0.01037717  0.01037717  0.23352512  1
  Cl  Cl5  1  0.98962283  0.98962283  0.76647488  1
  O  O6  1  0.29351185  0.29351185  0.53465239  1
  O  O7  1  0.50902271  0.88864161  0.84755262  1
  O  O8  1  0.70648815  0.70648815  0.46534761  1
  O  O9  1  0.45778028  0.45778028  0.79670351  1
  O  O10  1  0.11135839  0.49097729  0.15244738  1
  O  O11  1  0.88864161  0.50902271  0.84755262  1
  O  O12  1  0.49097729  0.11135839  0.15244738  1
  O  O13  1  0.54221972  0.54221972  0.20329649  1
