# generated using pymatgen
data_Cr4Si2Cl2O7
_symmetry_space_group_name_H-M   'P 1'
_cell_length_a   6.51010394
_cell_length_b   10.64618744
_cell_length_c   12.95704256
_cell_angle_alpha   90.00000000
_cell_angle_beta   90.00000000
_cell_angle_gamma   92.02170183
_symmetry_Int_Tables_number   1
_chemical_formula_structural   Cr4Si2Cl2O7
_chemical_formula_sum   'Cr16 Si8 Cl8 O28'
_cell_volume   897.46495633
_cell_formula_units_Z   4
loop_
 _symmetry_equiv_pos_site_id
 _symmetry_equiv_pos_as_xyz
  1  'x, y, z'
loop_
 _atom_site_type_symbol
 _atom_site_label
 _atom_site_symmetry_multiplicity
 _atom_site_fract_x
 _atom_site_fract_y
 _atom_site_fract_z
 _atom_site_occupancy
  Cr  Cr0  1  0.45221343  0.92116115  0.23285625  1
  Cr  Cr1  1  0.85159983  0.59499833  0.11365587  1
  Cr  Cr2  1  0.18564683  0.40862186  0.96789047  1
  Cr  Cr3  1  0.81972376  0.10296040  0.12809169  1
  Cr  Cr4  1  0.78227282  0.61334269  0.62723335  1
  Cr  Cr5  1  0.44162703  0.81334877  0.54213728  1
  Cr  Cr6  1  0.81972376  0.60296040  0.87190831  1
  Cr  Cr7  1  0.78528148  0.61580928  0.36208864  1
  Cr  Cr8  1  0.18042298  0.42157743  0.27594113  1
  Cr  Cr9  1  0.78528148  0.11580928  0.63791136  1
  Cr  Cr10  1  0.18564683  0.90862186  0.03210953  1
  Cr  Cr11  1  0.45221343  0.42116115  0.76714375  1
  Cr  Cr12  1  0.18042298  0.92157743  0.72405887  1
  Cr  Cr13  1  0.44162703  0.31334877  0.45786272  1
  Cr  Cr14  1  0.85159983  0.09499833  0.88634413  1
  Cr  Cr15  1  0.78227282  0.11334269  0.37276665  1
  Si  Si16  1  0.94312520  0.35525225  0.73935723  1
  Si  Si17  1  0.94312520  0.85525225  0.26064277  1
  Si  Si18  1  0.93537531  0.87282254  0.50446922  1
  Si  Si19  1  0.67878157  0.35701924  0.00141203  1
  Si  Si20  1  0.67598622  0.36401688  0.23913629  1
  Si  Si21  1  0.67598622  0.86401688  0.76086371  1
  Si  Si22  1  0.93537531  0.37282254  0.49553078  1
  Si  Si23  1  0.67878157  0.85701924  0.99858797  1
  Cl  Cl24  1  0.18532400  0.23356758  0.11663172  1
  Cl  Cl25  1  0.24547821  0.06023912  0.87564319  1
  Cl  Cl26  1  0.24547821  0.56023912  0.12435681  1
  Cl  Cl27  1  0.42719593  0.21117588  0.62715218  1
  Cl  Cl28  1  0.37436191  0.54793749  0.61666373  1
  Cl  Cl29  1  0.37436191  0.04793749  0.38333627  1
  Cl  Cl30  1  0.18532400  0.73356758  0.88336828  1
  Cl  Cl31  1  0.42719593  0.71117588  0.37284782  1
  O  O32  1  0.75045709  0.71239317  0.00092887  1
  O  O33  1  0.84483401  0.01486501  0.50628946  1
  O  O34  1  0.14731788  0.89100489  0.19285387  1
  O  O35  1  0.86998455  0.96766887  0.73741504  1
  O  O36  1  0.49013183  0.89064546  0.07535151  1
  O  O37  1  0.82712149  0.22218448  0.77191446  1
  O  O38  1  0.61397641  0.39652439  0.11936176  1
  O  O39  1  0.14000034  0.85544511  0.57484112  1
  O  O40  1  0.75082381  0.77134657  0.53923648  1
  O  O41  1  0.77575194  0.97063247  0.25220344  1
  O  O42  1  0.87668778  0.96108267  0.01906470  1
  O  O43  1  0.84483401  0.51486501  0.49371054  1
  O  O44  1  0.75082381  0.27134657  0.46076352  1
  O  O45  1  0.74840713  0.22014780  0.24431424  1
  O  O46  1  0.48216521  0.39361881  0.31357698  1
  O  O47  1  0.77575194  0.47063247  0.74779656  1
  O  O48  1  0.82712149  0.72218448  0.22808554  1
  O  O49  1  0.86998455  0.46766887  0.26258496  1
  O  O50  1  0.48216521  0.89361881  0.68642302  1
  O  O51  1  0.49013183  0.39064546  0.92464849  1
  O  O52  1  0.75045709  0.21239317  0.99907113  1
  O  O53  1  0.87668778  0.46108267  0.98093530  1
  O  O54  1  0.14000034  0.35544611  0.42515888  1
  O  O55  1  0.14731788  0.39100489  0.80714613  1
  O  O56  1  0.74840713  0.72014780  0.75568576  1
  O  O57  1  0.99066303  0.33466842  0.61597195  1
  O  O58  1  0.99066303  0.83466842  0.38402805  1
  O  O59  1  0.61397641  0.89652439  0.88063824  1
