# generated using pymatgen
data_Ba2Mn(AsO4)2
_symmetry_space_group_name_H-M   'P 1'
_cell_length_a   5.60942345
_cell_length_b   9.34074126
_cell_length_c   16.90557799
_cell_angle_alpha   90.00000000
_cell_angle_beta   89.56521717
_cell_angle_gamma   90.00000000
_symmetry_Int_Tables_number   1
_chemical_formula_structural   Ba2Mn(AsO4)2
_chemical_formula_sum   'Ba8 Mn4 As8 O32'
_cell_volume   885.76208621
_cell_formula_units_Z   4
loop_
 _symmetry_equiv_pos_site_id
 _symmetry_equiv_pos_as_xyz
  1  'x, y, z'
loop_
 _atom_site_type_symbol
 _atom_site_label
 _atom_site_symmetry_multiplicity
 _atom_site_fract_x
 _atom_site_fract_y
 _atom_site_fract_z
 _atom_site_occupancy
  Ba  Ba0  1  0.24504115  0.16339494  0.23120561  1
  Ba  Ba1  1  0.28967775  0.80218706  0.02064770  1
  Ba  Ba2  1  0.74504115  0.33660506  0.73120561  1
  Ba  Ba3  1  0.25495885  0.66339494  0.26879439  1
  Ba  Ba4  1  0.75495885  0.83660506  0.76879439  1
  Ba  Ba5  1  0.21032225  0.30218706  0.47935230  1
  Ba  Ba6  1  0.71032225  0.19781294  0.97935230  1
  Ba  Ba7  1  0.78967775  0.69781294  0.52064770  1
  Mn  Mn8  1  0.76909617  0.52015265  0.13664547  1
  Mn  Mn9  1  0.23090383  0.47984735  0.86335453  1
  Mn  Mn10  1  0.73090383  0.02015265  0.36335453  1
  Mn  Mn11  1  0.26909617  0.97984735  0.63664547  1
  As  As12  1  0.24839273  0.10415629  0.83610983  1
  As  As13  1  0.25160727  0.60415629  0.66389017  1
  As  As14  1  0.24593592  0.40453103  0.07571650  1
  As  As15  1  0.74593592  0.09546897  0.57571650  1
  As  As16  1  0.25406408  0.90453103  0.42428350  1
  As  As17  1  0.75406408  0.59546897  0.92428350  1
  As  As18  1  0.75160727  0.89584371  0.16389017  1
  As  As19  1  0.74839273  0.39584371  0.33610983  1
  O  O20  1  0.48201984  0.78828140  0.40052586  1
  O  O21  1  0.15716148  0.53086997  0.57613226  1
  O  O22  1  0.34283852  0.03086997  0.92386774  1
  O  O23  1  0.36483338  0.00563549  0.75832289  1
  O  O24  1  0.18031642  0.89298933  0.52224898  1
  O  O25  1  0.85314940  0.42951178  0.89174277  1
  O  O26  1  0.31968358  0.39298933  0.97775102  1
  O  O27  1  0.14685060  0.57048822  0.10825723  1
  O  O28  1  0.68031642  0.60701067  0.02224898  1
  O  O29  1  0.87413867  0.22699769  0.32739120  1
  O  O30  1  0.00580769  0.85564996  0.36994376  1
  O  O31  1  0.44034452  0.39163409  0.33217935  1
  O  O32  1  0.05965548  0.89163409  0.16782065  1
  O  O33  1  0.01798016  0.28828140  0.09947414  1
  O  O34  1  0.86483338  0.49436451  0.25832289  1
  O  O35  1  0.49419231  0.35564996  0.13005624  1
  O  O36  1  0.84283852  0.46913003  0.42386774  1
  O  O37  1  0.55965548  0.60836591  0.66782065  1
  O  O38  1  0.62586133  0.72699769  0.17260880  1
  O  O39  1  0.12586133  0.77300231  0.67260880  1
  O  O40  1  0.98201984  0.71171860  0.90052586  1
  O  O41  1  0.63516662  0.99436451  0.24167711  1
  O  O42  1  0.81968358  0.10701067  0.47775102  1
  O  O43  1  0.50580769  0.64435004  0.86994376  1
  O  O44  1  0.37413867  0.27300231  0.82739120  1
  O  O45  1  0.13516662  0.50563549  0.74167711  1
  O  O46  1  0.65716148  0.96913003  0.07613226  1
  O  O47  1  0.64685060  0.92951178  0.60825723  1
  O  O48  1  0.94034452  0.10836591  0.83217935  1
  O  O49  1  0.51798016  0.21171860  0.59947414  1
  O  O50  1  0.35314940  0.07048822  0.39174277  1
  O  O51  1  0.99419231  0.14435004  0.63005624  1
