# generated using pymatgen
data_K2SrV3O9
_symmetry_space_group_name_H-M   'P 1'
_cell_length_a   5.50696389
_cell_length_b   10.43427258
_cell_length_c   16.37073103
_cell_angle_alpha   90.00000000
_cell_angle_beta   90.00000000
_cell_angle_gamma   90.00000000
_symmetry_Int_Tables_number   1
_chemical_formula_structural   K2SrV3O9
_chemical_formula_sum   'K8 Sr4 V12 O36'
_cell_volume   940.68123295
_cell_formula_units_Z   4
loop_
 _symmetry_equiv_pos_site_id
 _symmetry_equiv_pos_as_xyz
  1  'x, y, z'
loop_
 _atom_site_type_symbol
 _atom_site_label
 _atom_site_symmetry_multiplicity
 _atom_site_fract_x
 _atom_site_fract_y
 _atom_site_fract_z
 _atom_site_occupancy
  K  K0  1  0.25000000  0.02861017  0.56816519  1
  K  K1  1  0.75000000  0.97138983  0.43183481  1
  K  K2  1  0.25000000  0.52861017  0.93183481  1
  K  K3  1  0.75000000  0.47138983  0.06816519  1
  K  K4  1  0.25000000  0.97133981  0.28859047  1
  K  K5  1  0.25000000  0.47133981  0.21140953  1
  K  K6  1  0.75000000  0.52866019  0.78859047  1
  K  K7  1  0.75000000  0.02866019  0.71140953  1
  Sr  Sr8  1  0.25000000  0.96656093  0.88442425  1
  Sr  Sr9  1  0.75000000  0.53343907  0.38442425  1
  Sr  Sr10  1  0.75000000  0.03343907  0.11557575  1
  Sr  Sr11  1  0.25000000  0.46656093  0.61557575  1
  V  V12  1  0.75000000  0.70883923  0.59414448  1
  V  V13  1  0.25000000  0.79116077  0.09414448  1
  V  V14  1  0.75000000  0.20883923  0.90585552  1
  V  V15  1  0.75000000  0.30974990  0.54297282  1
  V  V16  1  0.75000000  0.74880113  0.22749836  1
  V  V17  1  0.75000000  0.80974990  0.95702718  1
  V  V18  1  0.25000000  0.19025010  0.04297282  1
  V  V19  1  0.25000000  0.25119887  0.77250164  1
  V  V20  1  0.25000000  0.29116077  0.40585552  1
  V  V21  1  0.25000000  0.69025010  0.45702718  1
  V  V22  1  0.75000000  0.24880113  0.27250164  1
  V  V23  1  0.25000000  0.75119887  0.72749836  1
  O  O24  1  0.99778596  0.67320338  0.67924475  1
  O  O25  1  0.49778596  0.32679662  0.32075525  1
  O  O26  1  0.51035446  0.64069497  0.51426059  1
  O  O27  1  0.75000000  0.58548022  0.21842820  1
  O  O28  1  0.49778596  0.82679662  0.17924475  1
  O  O29  1  0.75000000  0.90307479  0.87012762  1
  O  O30  1  0.25000000  0.22596004  0.66983961  1
  O  O31  1  0.50221404  0.17320338  0.82075525  1
  O  O32  1  0.25000000  0.63335500  0.08200783  1
  O  O33  1  0.25000000  0.13335500  0.41799217  1
  O  O34  1  0.75000000  0.86664500  0.58200783  1
  O  O35  1  0.25000000  0.91451978  0.71842820  1
  O  O36  1  0.25000000  0.34997646  0.06001000  1
  O  O37  1  0.48964554  0.85930503  0.01426059  1
  O  O38  1  0.99778596  0.17320338  0.82075525  1
  O  O39  1  0.75000000  0.27403996  0.16983961  1
  O  O40  1  0.75000000  0.36664500  0.91799217  1
  O  O41  1  0.75000000  0.08548022  0.28157180  1
  O  O42  1  0.25000000  0.59692521  0.37012762  1
  O  O43  1  0.00221404  0.32679662  0.32075525  1
  O  O44  1  0.25000000  0.72596004  0.83016039  1
  O  O45  1  0.25000000  0.84997646  0.43999000  1
  O  O46  1  0.25000000  0.09692521  0.12987238  1
  O  O47  1  0.75000000  0.77403996  0.33016039  1
  O  O48  1  0.98964554  0.64069497  0.51426059  1
  O  O49  1  0.50221404  0.67320338  0.67924475  1
  O  O50  1  0.01035446  0.35930503  0.48573941  1
  O  O51  1  0.98964554  0.14069497  0.98573941  1
  O  O52  1  0.25000000  0.41451978  0.78157180  1
  O  O53  1  0.00221404  0.82679662  0.17924475  1
  O  O54  1  0.75000000  0.15002354  0.56001000  1
  O  O55  1  0.48964554  0.35930503  0.48573941  1
  O  O56  1  0.51035446  0.14069497  0.98573941  1
  O  O57  1  0.75000000  0.65002354  0.93999000  1
  O  O58  1  0.75000000  0.40307479  0.62987238  1
  O  O59  1  0.01035446  0.85930503  0.01426059  1
