# generated using pymatgen
data_Na3BiAsCO7
_symmetry_space_group_name_H-M   'P 1'
_cell_length_a   9.84958244
_cell_length_b   7.41198164
_cell_length_c   5.16650984
_cell_angle_alpha   90.00000000
_cell_angle_beta   89.21334880
_cell_angle_gamma   90.00000000
_symmetry_Int_Tables_number   1
_chemical_formula_structural   Na3BiAsCO7
_chemical_formula_sum   'Na6 Bi2 As2 C2 O14'
_cell_volume   377.14511011
_cell_formula_units_Z   2
loop_
 _symmetry_equiv_pos_site_id
 _symmetry_equiv_pos_as_xyz
  1  'x, y, z'
loop_
 _atom_site_type_symbol
 _atom_site_label
 _atom_site_symmetry_multiplicity
 _atom_site_fract_x
 _atom_site_fract_y
 _atom_site_fract_z
 _atom_site_occupancy
  Na  Na0  1  0.08043659  0.25000000  0.76514238  1
  Na  Na1  1  0.24731374  0.01657142  0.25395791  1
  Na  Na2  1  0.24731374  0.48342858  0.25395791  1
  Na  Na3  1  0.75268626  0.51657142  0.74604209  1
  Na  Na4  1  0.75268626  0.98342858  0.74604209  1
  Na  Na5  1  0.91956341  0.75000000  0.23485762  1
  Bi  Bi6  1  0.34612854  0.75000000  0.76624846  1
  Bi  Bi7  1  0.65387146  0.25000000  0.23375154  1
  As  As8  1  0.40219124  0.25000000  0.72330922  1
  As  As9  1  0.59780876  0.75000000  0.27669078  1
  C  C10  1  0.04762323  0.75000000  0.72466021  1
  C  C11  1  0.95237677  0.25000000  0.27533979  1
  O  O12  1  0.08403652  0.25000000  0.27692849  1
  O  O13  1  0.11154732  0.75000000  0.94563337  1
  O  O14  1  0.11751857  0.75000000  0.50999095  1
  O  O15  1  0.28766511  0.06180562  0.78264510  1
  O  O16  1  0.28766511  0.43819438  0.78264510  1
  O  O17  1  0.41467376  0.25000000  0.37907204  1
  O  O18  1  0.38911060  0.75000000  0.18870388  1
  O  O19  1  0.61088940  0.25000000  0.81129612  1
  O  O20  1  0.58532624  0.75000000  0.62092796  1
  O  O21  1  0.71233489  0.56180562  0.21735490  1
  O  O22  1  0.71233489  0.93819438  0.21735490  1
  O  O23  1  0.88248143  0.25000000  0.49000905  1
  O  O24  1  0.88845268  0.25000000  0.05436663  1
  O  O25  1  0.91596348  0.75000000  0.72307151  1
