# generated using pymatgen
data_Cr2PIO4
_symmetry_space_group_name_H-M   'P 1'
_cell_length_a   6.42046205
_cell_length_b   6.51922310
_cell_length_c   12.78007784
_cell_angle_alpha   104.39957895
_cell_angle_beta   90.00000000
_cell_angle_gamma   90.00000000
_symmetry_Int_Tables_number   1
_chemical_formula_structural   Cr2PIO4
_chemical_formula_sum   'Cr8 P4 I4 O16'
_cell_volume   518.12358301
_cell_formula_units_Z   4
loop_
 _symmetry_equiv_pos_site_id
 _symmetry_equiv_pos_as_xyz
  1  'x, y, z'
loop_
 _atom_site_type_symbol
 _atom_site_label
 _atom_site_symmetry_multiplicity
 _atom_site_fract_x
 _atom_site_fract_y
 _atom_site_fract_z
 _atom_site_occupancy
  Cr  Cr0  1  0.14931153  0.56468232  0.10339498  1
  Cr  Cr1  1  0.01394572  0.30455285  0.39261214  1
  Cr  Cr2  1  0.98605428  0.69544715  0.60738786  1
  Cr  Cr3  1  0.51394572  0.19544715  0.10738786  1
  Cr  Cr4  1  0.64931153  0.93531768  0.39660502  1
  Cr  Cr5  1  0.48605428  0.80455285  0.89261214  1
  Cr  Cr6  1  0.35068847  0.06468232  0.60339498  1
  Cr  Cr7  1  0.85068847  0.43531768  0.89660502  1
  P  P8  1  0.36884851  0.30510024  0.87794243  1
  P  P9  1  0.86884851  0.19489976  0.62205757  1
  P  P10  1  0.13115149  0.80510024  0.37794243  1
  P  P11  1  0.63115149  0.69489976  0.12205757  1
  I  I12  1  0.53008665  0.33939763  0.34020841  1
  I  I13  1  0.46991335  0.66060237  0.65979159  1
  I  I14  1  0.03008665  0.16060237  0.15979159  1
  I  I15  1  0.96991335  0.83939763  0.84020841  1
  O  O16  1  0.17349274  0.70567568  0.26097239  1
  O  O17  1  0.33441645  0.90355728  0.43852490  1
  O  O18  1  0.66558355  0.09644272  0.56147510  1
  O  O19  1  0.53131029  0.49041554  0.89141866  1
  O  O20  1  0.67349274  0.79432432  0.23902761  1
  O  O21  1  0.96357089  0.36150300  0.56372544  1
  O  O22  1  0.83441645  0.59644272  0.06147510  1
  O  O23  1  0.03642911  0.63849700  0.43627456  1
  O  O24  1  0.53642911  0.86150300  0.06372544  1
  O  O25  1  0.96868971  0.99041554  0.39141866  1
  O  O26  1  0.82650726  0.29432432  0.73902761  1
  O  O27  1  0.32650726  0.20567568  0.76097239  1
  O  O28  1  0.16558355  0.40355728  0.93852490  1
  O  O29  1  0.46868971  0.50958446  0.10858134  1
  O  O30  1  0.46357089  0.13849700  0.93627456  1
  O  O31  1  0.03131029  0.00958446  0.60858134  1
