# generated using pymatgen
data_Ti4As3
_symmetry_space_group_name_H-M   'P 1'
_cell_length_a   6.66120711
_cell_length_b   6.66120808
_cell_length_c   6.66120738
_cell_angle_alpha   109.47122160
_cell_angle_beta   109.47122455
_cell_angle_gamma   109.47121806
_symmetry_Int_Tables_number   1
_chemical_formula_structural   Ti4As3
_chemical_formula_sum   'Ti8 As6'
_cell_volume   227.52912081
_cell_formula_units_Z   2
loop_
 _symmetry_equiv_pos_site_id
 _symmetry_equiv_pos_as_xyz
  1  'x, y, z'
loop_
 _atom_site_type_symbol
 _atom_site_label
 _atom_site_symmetry_multiplicity
 _atom_site_fract_x
 _atom_site_fract_y
 _atom_site_fract_z
 _atom_site_occupancy
  Ti  Ti0  1  0.00000000  0.35136823  0.50000000  1
  Ti  Ti1  1  0.50000000  1.00000000  0.35136823  1
  Ti  Ti2  1  0.85136823  0.50000000  1.00000000  1
  Ti  Ti3  1  0.14863177  0.14863177  0.14863177  1
  Ti  Ti4  1  0.50000000  1.00000000  0.85136823  1
  Ti  Ti5  1  0.64863177  0.64863177  0.64863177  1
  Ti  Ti6  1  0.00000000  0.85136823  0.50000000  1
  Ti  Ti7  1  0.35136823  0.50000000  1.00000000  1
  As  As8  1  0.75000000  0.87500000  0.12500000  1
  As  As9  1  0.87500000  0.12500000  0.75000000  1
  As  As10  1  0.62500000  0.37500000  0.25000000  1
  As  As11  1  0.25000000  0.62500000  0.37500000  1
  As  As12  1  0.12500000  0.75000000  0.87500000  1
  As  As13  1  0.37500000  0.25000000  0.62500000  1
