# generated using pymatgen
data_MnP4O11
_symmetry_space_group_name_H-M   'P 1'
_cell_length_a   8.43457162
_cell_length_b   8.68579074
_cell_length_c   12.71020090
_cell_angle_alpha   90.00000000
_cell_angle_beta   90.00000000
_cell_angle_gamma   94.85126130
_symmetry_Int_Tables_number   1
_chemical_formula_structural   MnP4O11
_chemical_formula_sum   'Mn4 P16 O44'
_cell_volume   927.82526810
_cell_formula_units_Z   4
loop_
 _symmetry_equiv_pos_site_id
 _symmetry_equiv_pos_as_xyz
  1  'x, y, z'
loop_
 _atom_site_type_symbol
 _atom_site_label
 _atom_site_symmetry_multiplicity
 _atom_site_fract_x
 _atom_site_fract_y
 _atom_site_fract_z
 _atom_site_occupancy
  Mn  Mn0  1  0.77103436  0.76366374  0.46716922  1
  Mn  Mn1  1  0.27103436  0.26366374  0.03283078  1
  Mn  Mn2  1  0.22896564  0.23633626  0.53283078  1
  Mn  Mn3  1  0.72896564  0.73633626  0.96716922  1
  P  P4  1  0.24733701  0.89694035  0.15384793  1
  P  P5  1  0.61794861  0.26646501  0.66492883  1
  P  P6  1  0.88205139  0.23353499  0.16492883  1
  P  P7  1  0.39704960  0.39844904  0.29018152  1
  P  P8  1  0.81874398  0.16203320  0.49626780  1
  P  P9  1  0.31874398  0.66203320  0.00373220  1
  P  P10  1  0.25266299  0.60305965  0.65384793  1
  P  P11  1  0.68125602  0.33796680  0.99626780  1
  P  P12  1  0.60295040  0.60155096  0.70981848  1
  P  P13  1  0.89704960  0.89844904  0.20981848  1
  P  P14  1  0.75266299  0.10305965  0.84615207  1
  P  P15  1  0.74733701  0.39694035  0.34615207  1
  P  P16  1  0.38205139  0.73353499  0.33507117  1
  P  P17  1  0.11794861  0.76646501  0.83507117  1
  P  P18  1  0.10295040  0.10155096  0.79018152  1
  P  P19  1  0.18125602  0.83796680  0.50373220  1
  O  O20  1  0.37123002  0.86254757  0.24559524  1
  O  O21  1  0.51138163  0.29464652  0.97081806  1
  O  O22  1  0.25195833  0.99858995  0.48760208  1
  O  O23  1  0.84233139  0.81453714  0.30591615  1
  O  O24  1  0.34233139  0.31453714  0.19408385  1
  O  O25  1  0.70803156  0.23794004  0.40547168  1
  O  O26  1  0.59269866  0.42210872  0.28218244  1
  O  O27  1  0.31084917  0.02594895  0.08732846  1
  O  O28  1  0.15142092  0.15069583  0.89803864  1
  O  O29  1  0.62876998  0.13745243  0.75440476  1
  O  O30  1  0.24804167  0.50141005  0.98760208  1
  O  O31  1  0.97062274  0.74203552  0.89618230  1
  O  O32  1  0.09269866  0.92210872  0.21781756  1
  O  O33  1  0.20803156  0.73794004  0.09452832  1
  O  O34  1  0.81084917  0.52594895  0.41267154  1
  O  O35  1  0.35776347  0.57885688  0.27008287  1
  O  O36  1  0.85776347  0.07885688  0.22991713  1
  O  O37  1  0.47062274  0.24203552  0.60381770  1
  O  O38  1  0.34857908  0.34930417  0.39803864  1
  O  O39  1  0.18915083  0.47405105  0.58732846  1
  O  O40  1  0.98861837  0.20535348  0.47081806  1
  O  O41  1  0.77759305  0.26642816  0.59968795  1
  O  O42  1  0.84857908  0.84930417  0.10196136  1
  O  O43  1  0.48861837  0.70535348  0.02918194  1
  O  O44  1  0.40730134  0.57789128  0.71781756  1
  O  O45  1  0.72240695  0.23357184  0.09968795  1
  O  O46  1  0.74804167  0.00141005  0.51239792  1
  O  O47  1  0.75195833  0.49858995  0.01239792  1
  O  O48  1  0.87123002  0.36254757  0.25440476  1
  O  O49  1  0.22240695  0.73357184  0.40031205  1
  O  O50  1  0.52937726  0.75796448  0.39618230  1
  O  O51  1  0.15766861  0.18546286  0.69408385  1
  O  O52  1  0.02937726  0.25796448  0.10381770  1
  O  O53  1  0.90730134  0.07789128  0.78218244  1
  O  O54  1  0.65142092  0.65069583  0.60196136  1
  O  O55  1  0.27759305  0.76642816  0.90031205  1
  O  O56  1  0.29196844  0.76205996  0.59452832  1
  O  O57  1  0.01138163  0.79464652  0.52918194  1
  O  O58  1  0.79196844  0.26205996  0.90547168  1
  O  O59  1  0.68915083  0.97405105  0.91267154  1
  O  O60  1  0.65766861  0.68546286  0.80591615  1
  O  O61  1  0.14223653  0.92114312  0.77008287  1
  O  O62  1  0.64223653  0.42114312  0.72991713  1
  O  O63  1  0.12876998  0.63745243  0.74559524  1
