# generated using pymatgen
data_Sr(BiPd)2
_symmetry_space_group_name_H-M   'P 1'
_cell_length_a   4.84886289
_cell_length_b   4.95659729
_cell_length_c   10.94894671
_cell_angle_alpha   92.19390242
_cell_angle_beta   90.00000000
_cell_angle_gamma   90.00000000
_symmetry_Int_Tables_number   1
_chemical_formula_structural   Sr(BiPd)2
_chemical_formula_sum   'Sr2 Bi4 Pd4'
_cell_volume   262.95257304
_cell_formula_units_Z   2
loop_
 _symmetry_equiv_pos_site_id
 _symmetry_equiv_pos_as_xyz
  1  'x, y, z'
loop_
 _atom_site_type_symbol
 _atom_site_label
 _atom_site_symmetry_multiplicity
 _atom_site_fract_x
 _atom_site_fract_y
 _atom_site_fract_z
 _atom_site_occupancy
  Sr  Sr0  1  0.25000000  0.25976986  0.76332179  1
  Sr  Sr1  1  0.75000000  0.74023014  0.23667821  1
  Bi  Bi2  1  0.25000000  0.20891370  0.11952879  1
  Bi  Bi3  1  0.75000000  0.79108630  0.88047121  1
  Bi  Bi4  1  0.75000000  0.25006396  0.50160907  1
  Bi  Bi5  1  0.25000000  0.74993604  0.49839093  1
  Pd  Pd6  1  0.25000000  0.24180361  0.36960677  1
  Pd  Pd7  1  0.75000000  0.75819639  0.63039323  1
  Pd  Pd8  1  0.25000000  0.69071332  0.00003277  1
  Pd  Pd9  1  0.75000000  0.30928668  0.99996723  1
