# generated using pymatgen
data_Sr(RuO3)2
_symmetry_space_group_name_H-M   'P 1'
_cell_length_a   5.46611858
_cell_length_b   5.46611877
_cell_length_c   5.46611841
_cell_angle_alpha   90.13489013
_cell_angle_beta   119.90576534
_cell_angle_gamma   119.93854334
_symmetry_Int_Tables_number   1
_chemical_formula_structural   Sr(RuO3)2
_chemical_formula_sum   'Sr1 Ru2 O6'
_cell_volume   115.61961021
_cell_formula_units_Z   1
loop_
 _symmetry_equiv_pos_site_id
 _symmetry_equiv_pos_as_xyz
  1  'x, y, z'
loop_
 _atom_site_type_symbol
 _atom_site_label
 _atom_site_symmetry_multiplicity
 _atom_site_fract_x
 _atom_site_fract_y
 _atom_site_fract_z
 _atom_site_occupancy
  O  O0  1  0.99775670  0.27565837  0.77671062  1
  O  O1  1  0.50105224  0.77895391  0.77671062  1
  O  O2  1  0.43387241  0.25000000  0.68387241  1
  O  O3  1  0.54842566  0.75000000  0.29842566  1
  O  O4  1  0.50105224  0.22434163  0.22209833  1
  O  O5  1  0.99775670  0.72104609  0.22209833  1
  Ru  Ru6  1  0.49931230  0.00045753  0.49976982  1
  Ru  Ru7  1  0.49931230  0.49954247  0.99885477  1
  Sr  Sr8  1  0.00245945  0.75000000  0.75245945  1
