# generated using pymatgen
data_Ba2Co2ClF7
_symmetry_space_group_name_H-M   'P 1'
_cell_length_a   5.87827829
_cell_length_b   7.82753106
_cell_length_c   9.03869599
_cell_angle_alpha   106.77664146
_cell_angle_beta   90.00000000
_cell_angle_gamma   90.00000000
_symmetry_Int_Tables_number   1
_chemical_formula_structural   Ba2Co2ClF7
_chemical_formula_sum   'Ba4 Co4 Cl2 F14'
_cell_volume   398.19063575
_cell_formula_units_Z   2
loop_
 _symmetry_equiv_pos_site_id
 _symmetry_equiv_pos_as_xyz
  1  'x, y, z'
loop_
 _atom_site_type_symbol
 _atom_site_label
 _atom_site_symmetry_multiplicity
 _atom_site_fract_x
 _atom_site_fract_y
 _atom_site_fract_z
 _atom_site_occupancy
  Ba  Ba0  1  0.25000000  0.30200465  0.07316883  1
  Ba  Ba1  1  0.75000000  0.69799535  0.92683117  1
  Ba  Ba2  1  0.75000000  0.66873893  0.41245380  1
  Ba  Ba3  1  0.25000000  0.33126107  0.58754620  1
  Co  Co4  1  0.75000000  0.17399788  0.26622800  1
  Co  Co5  1  0.25000000  0.82600212  0.73377200  1
  Co  Co6  1  0.25000000  0.81780407  0.17559246  1
  Co  Co7  1  0.75000000  0.18219593  0.82440754  1
  Cl  Cl8  1  0.25000000  0.88284808  0.46934514  1
  Cl  Cl9  1  0.75000000  0.11715192  0.53065486  1
  F  F10  1  0.00736259  0.62999960  0.16060233  1
  F  F11  1  0.99713973  0.36140414  0.34544260  1
  F  F12  1  0.75000000  0.25423441  0.06582324  1
  F  F13  1  0.50214301  0.99493832  0.17222005  1
  F  F14  1  0.49263741  0.62999960  0.16060233  1
  F  F15  1  0.00286027  0.63859586  0.65455740  1
  F  F16  1  0.50286027  0.36140414  0.34544260  1
  F  F17  1  0.99263741  0.37000040  0.83939767  1
  F  F18  1  0.00214301  0.00506168  0.82777995  1
  F  F19  1  0.49785699  0.00506168  0.82777995  1
  F  F20  1  0.50736259  0.37000040  0.83939767  1
  F  F21  1  0.99785699  0.99493832  0.17222005  1
  F  F22  1  0.25000000  0.74576559  0.93417676  1
  F  F23  1  0.49713973  0.63859586  0.65455740  1
