# generated using pymatgen
data_K2UMo(IO6)2
_symmetry_space_group_name_H-M   'P 1'
_cell_length_a   7.40130819
_cell_length_b   11.54673101
_cell_length_c   16.15014850
_cell_angle_alpha   107.37609640
_cell_angle_beta   90.00000000
_cell_angle_gamma   90.00000000
_symmetry_Int_Tables_number   1
_chemical_formula_structural   K2UMo(IO6)2
_chemical_formula_sum   'K8 U4 Mo4 I8 O48'
_cell_volume   1317.22074900
_cell_formula_units_Z   4
loop_
 _symmetry_equiv_pos_site_id
 _symmetry_equiv_pos_as_xyz
  1  'x, y, z'
loop_
 _atom_site_type_symbol
 _atom_site_label
 _atom_site_symmetry_multiplicity
 _atom_site_fract_x
 _atom_site_fract_y
 _atom_site_fract_z
 _atom_site_occupancy
  K  K0  1  0.25771128  0.25918561  0.14241548  1
  K  K1  1  0.24514927  0.50145443  0.45263641  1
  K  K2  1  0.75771128  0.74081439  0.35758452  1
  K  K3  1  0.74228872  0.74081439  0.85758452  1
  K  K4  1  0.25485073  0.50145443  0.95263641  1
  K  K5  1  0.75485073  0.49854557  0.54736359  1
  K  K6  1  0.74514927  0.49854557  0.04736359  1
  K  K7  1  0.24228872  0.25918561  0.64241548  1
  U  U8  1  0.49254240  0.83054045  0.14054743  1
  U  U9  1  0.99254240  0.16945955  0.35945257  1
  U  U10  1  0.00745760  0.83054045  0.64054743  1
  U  U11  1  0.50745760  0.16945955  0.85945257  1
  Mo  Mo12  1  0.24597655  0.91891703  0.44609535  1
  Mo  Mo13  1  0.25402345  0.91891703  0.94609535  1
  Mo  Mo14  1  0.75402345  0.08108297  0.55390465  1
  Mo  Mo15  1  0.74597655  0.08108297  0.05390465  1
  I  I16  1  0.28637752  0.59590395  0.22817316  1
  I  I17  1  0.51248475  0.82209319  0.61039422  1
  I  I18  1  0.98751525  0.82209319  0.11039422  1
  I  I19  1  0.01248475  0.17790681  0.88960578  1
  I  I20  1  0.48751525  0.17790681  0.38960578  1
  I  I21  1  0.21362248  0.59590395  0.72817316  1
  I  I22  1  0.71362248  0.40409605  0.77182684  1
  I  I23  1  0.78637752  0.40409605  0.27182684  1
  O  O24  1  0.68173128  0.21947476  0.33126492  1
  O  O25  1  0.20089617  0.21729467  0.82714994  1
  O  O26  1  0.79592093  0.08417547  0.44181736  1
  O  O27  1  0.20407907  0.91582453  0.55818264  1
  O  O28  1  0.47615954  0.89148318  0.42327553  1
  O  O29  1  0.18173128  0.78052524  0.16873508  1
  O  O30  1  0.68574000  0.51072814  0.87905830  1
  O  O31  1  0.68686053  0.93158550  0.06774127  1
  O  O32  1  0.81826872  0.21947476  0.83126492  1
  O  O33  1  0.52384046  0.10851682  0.57672447  1
  O  O34  1  0.38739167  0.50961011  0.29409368  1
  O  O35  1  0.48692076  0.96474051  0.23496668  1
  O  O36  1  0.29910383  0.21729467  0.32714994  1
  O  O37  1  0.51307924  0.03525949  0.76503332  1
  O  O38  1  0.81426000  0.51072814  0.37905830  1
  O  O39  1  0.37925242  0.80166730  0.87462517  1
  O  O40  1  0.18686053  0.06841450  0.43225873  1
  O  O41  1  0.11260833  0.50961011  0.79409368  1
  O  O42  1  0.00160766  0.69648637  0.54538847  1
  O  O43  1  0.88739167  0.49038989  0.20590632  1
  O  O44  1  0.62074758  0.19833270  0.12537483  1
  O  O45  1  0.98692076  0.03525949  0.26503332  1
  O  O46  1  0.70089617  0.78270533  0.67285006  1
  O  O47  1  0.70407907  0.08417547  0.94181736  1
  O  O48  1  0.12074758  0.80166730  0.37462517  1
  O  O49  1  0.49839234  0.69648637  0.04538847  1
  O  O50  1  0.31826872  0.78052524  0.66873508  1
  O  O51  1  0.18574000  0.48927186  0.62094170  1
  O  O52  1  0.81313947  0.93158550  0.56774127  1
  O  O53  1  0.01307924  0.96474051  0.73496668  1
  O  O54  1  0.01894204  0.69968073  0.72831166  1
  O  O55  1  0.87925242  0.19833270  0.62537483  1
  O  O56  1  0.51894204  0.30031927  0.77168834  1
  O  O57  1  0.01829704  0.31160297  0.98301466  1
  O  O58  1  0.31426000  0.48927186  0.12094170  1
  O  O59  1  0.79910383  0.78270533  0.17285006  1
  O  O60  1  0.50160766  0.30351363  0.95461153  1
  O  O61  1  0.98105796  0.30031927  0.27168834  1
  O  O62  1  0.97615954  0.10851682  0.07672447  1
  O  O63  1  0.99839234  0.30351363  0.45461153  1
  O  O64  1  0.48170296  0.31160297  0.48301466  1
  O  O65  1  0.31313947  0.06841450  0.93225873  1
  O  O66  1  0.02384046  0.89148318  0.92327553  1
  O  O67  1  0.98170296  0.68839703  0.01698534  1
  O  O68  1  0.29592093  0.91582453  0.05818264  1
  O  O69  1  0.61260833  0.49038989  0.70590632  1
  O  O70  1  0.51829704  0.68839703  0.51698534  1
  O  O71  1  0.48105796  0.69968073  0.22831166  1
