# generated using pymatgen
data_MoP3Pb2O11
_symmetry_space_group_name_H-M   'P 1'
_cell_length_a   6.65140415
_cell_length_b   7.20454801
_cell_length_c   20.37909573
_cell_angle_alpha   90.00000000
_cell_angle_beta   99.09512029
_cell_angle_gamma   90.00000000
_symmetry_Int_Tables_number   1
_chemical_formula_structural   MoP3Pb2O11
_chemical_formula_sum   'Mo4 P12 Pb8 O44'
_cell_volume   964.29542155
_cell_formula_units_Z   4
loop_
 _symmetry_equiv_pos_site_id
 _symmetry_equiv_pos_as_xyz
  1  'x, y, z'
loop_
 _atom_site_type_symbol
 _atom_site_label
 _atom_site_symmetry_multiplicity
 _atom_site_fract_x
 _atom_site_fract_y
 _atom_site_fract_z
 _atom_site_occupancy
  Mo  Mo0  1  0.17238745  0.12968871  0.12239500  1
  Mo  Mo1  1  0.67238745  0.37031129  0.62239500  1
  Mo  Mo2  1  0.82761255  0.87031129  0.87760500  1
  Mo  Mo3  1  0.32761255  0.62968871  0.37760500  1
  P  P4  1  0.09075576  0.96684783  0.27335771  1
  P  P5  1  0.34098446  0.85547160  0.91127633  1
  P  P6  1  0.15901554  0.35547160  0.58872367  1
  P  P7  1  0.63919633  0.30751100  0.45486105  1
  P  P8  1  0.84098446  0.64452840  0.41127633  1
  P  P9  1  0.40924424  0.46684783  0.22664229  1
  P  P10  1  0.86080367  0.80751100  0.04513895  1
  P  P11  1  0.59075576  0.53315217  0.77335771  1
  P  P12  1  0.90924424  0.03315217  0.72664229  1
  P  P13  1  0.13919633  0.19248900  0.95486105  1
  P  P14  1  0.65901554  0.14452840  0.08872367  1
  P  P15  1  0.36080367  0.69248900  0.54513895  1
  Pb  Pb16  1  0.60212702  0.98178874  0.27133225  1
  Pb  Pb17  1  0.89787298  0.48178874  0.22866775  1
  Pb  Pb18  1  0.40244894  0.61843480  0.07578261  1
  Pb  Pb19  1  0.09755106  0.11843480  0.42421739  1
  Pb  Pb20  1  0.90244894  0.88156520  0.57578261  1
  Pb  Pb21  1  0.39787298  0.01821126  0.72866775  1
  Pb  Pb22  1  0.59755106  0.38156520  0.92421739  1
  Pb  Pb23  1  0.10212702  0.51821126  0.77133225  1
  O  O24  1  0.27416327  0.51575328  0.27988698  1
  O  O25  1  0.76355163  0.67190172  0.08790049  1
  O  O26  1  0.86582101  0.73927130  0.97416729  1
  O  O27  1  0.73644837  0.17190172  0.41209951  1
  O  O28  1  0.48240144  0.36034390  0.79722150  1
  O  O29  1  0.36582101  0.76072870  0.47416729  1
  O  O30  1  0.57740439  0.31325333  0.04790155  1
  O  O31  1  0.42259561  0.68674667  0.95209845  1
  O  O32  1  0.13417899  0.26072870  0.02583271  1
  O  O33  1  0.92259561  0.81325333  0.45209845  1
  O  O34  1  0.22583673  0.01575328  0.22011302  1
  O  O35  1  0.51759856  0.63965610  0.20277850  1
  O  O36  1  0.74567455  0.60200290  0.83519528  1
  O  O37  1  0.07239653  0.17880624  0.75198957  1
  O  O38  1  0.75432545  0.10200290  0.66480472  1
  O  O39  1  0.64125527  0.68259958  0.36316507  1
  O  O40  1  0.71732664  0.99427952  0.03538289  1
  O  O41  1  0.14125527  0.81740042  0.86316507  1
  O  O42  1  0.63417899  0.23927130  0.52583271  1
  O  O43  1  0.49612362  0.05549185  0.12538717  1
  O  O44  1  0.85874473  0.18259958  0.13683493  1
  O  O45  1  0.25432545  0.39799710  0.16480472  1
  O  O46  1  0.21732664  0.50572048  0.53538289  1
  O  O47  1  0.01759856  0.86034390  0.70277850  1
  O  O48  1  0.77416327  0.98424672  0.77988698  1
  O  O49  1  0.07508873  0.86738875  0.07917903  1
  O  O50  1  0.72583673  0.48424672  0.72011302  1
  O  O51  1  0.00387638  0.55549185  0.37461283  1
  O  O52  1  0.92760347  0.82119376  0.24801043  1
  O  O53  1  0.92491127  0.13261125  0.92082097  1
  O  O54  1  0.57239653  0.32119376  0.25198957  1
  O  O55  1  0.98240144  0.13965610  0.29722150  1
  O  O56  1  0.42491127  0.36738875  0.42082097  1
  O  O57  1  0.78267336  0.49427952  0.46461711  1
  O  O58  1  0.28267336  0.00572048  0.96461711  1
  O  O59  1  0.50387638  0.94450815  0.87461283  1
  O  O60  1  0.35874473  0.31740042  0.63683493  1
  O  O61  1  0.07740439  0.18674667  0.54790155  1
  O  O62  1  0.26355163  0.82809828  0.58790049  1
  O  O63  1  0.42760347  0.67880624  0.74801043  1
  O  O64  1  0.57508873  0.63261125  0.57917903  1
  O  O65  1  0.99612362  0.44450815  0.62538717  1
  O  O66  1  0.23644837  0.32809828  0.91209951  1
  O  O67  1  0.24567455  0.89799710  0.33519528  1
