# generated using pymatgen
data_KLaSi(CN2)4
_symmetry_space_group_name_H-M   'P 1'
_cell_length_a   6.97652378
_cell_length_b   7.66816117
_cell_length_c   9.52587683
_cell_angle_alpha   90.00000000
_cell_angle_beta   90.00000000
_cell_angle_gamma   90.00000000
_symmetry_Int_Tables_number   1
_chemical_formula_structural   KLaSi(CN2)4
_chemical_formula_sum   'K2 La2 Si2 C8 N16'
_cell_volume   509.60686873
_cell_formula_units_Z   2
loop_
 _symmetry_equiv_pos_site_id
 _symmetry_equiv_pos_as_xyz
  1  'x, y, z'
loop_
 _atom_site_type_symbol
 _atom_site_label
 _atom_site_symmetry_multiplicity
 _atom_site_fract_x
 _atom_site_fract_y
 _atom_site_fract_z
 _atom_site_occupancy
  K  K0  1  0.92267687  0.00000000  0.00000000  1
  K  K1  1  0.07732313  0.50000000  0.50000000  1
  La  La2  1  0.25901529  0.00000000  0.50000000  1
  La  La3  1  0.74098471  0.50000000  0.00000000  1
  Si  Si4  1  0.75177171  0.00000000  0.50000000  1
  Si  Si5  1  0.24822829  0.50000000  0.00000000  1
  C  C6  1  0.87261486  0.78555688  0.70030230  1
  C  C7  1  0.36416983  0.67244731  0.77105665  1
  C  C8  1  0.36416983  0.32755269  0.22894335  1
  C  C9  1  0.12738514  0.71444312  0.20030230  1
  C  C10  1  0.12738514  0.28555688  0.79969770  1
  C  C11  1  0.87261486  0.21444312  0.29969770  1
  C  C12  1  0.63583017  0.82755269  0.27105665  1
  C  C13  1  0.63583017  0.17244731  0.72894335  1
  N  N14  1  0.91173240  0.13521476  0.41344683  1
  N  N15  1  0.67236652  0.23953016  0.83920992  1
  N  N16  1  0.67236652  0.76046984  0.16079008  1
  N  N17  1  0.15594802  0.79108480  0.30761192  1
  N  N18  1  0.32763348  0.26046984  0.33920992  1
  N  N19  1  0.32763348  0.73953016  0.66079008  1
  N  N20  1  0.08826760  0.63521476  0.08655317  1
  N  N21  1  0.15594802  0.20891520  0.69238808  1
  N  N22  1  0.59322065  0.09996743  0.61282677  1
  N  N23  1  0.84405198  0.29108480  0.19238808  1
  N  N24  1  0.84405198  0.70891520  0.80761192  1
  N  N25  1  0.08826760  0.36478524  0.91344683  1
  N  N26  1  0.40677935  0.40003257  0.11282677  1
  N  N27  1  0.59322065  0.90003257  0.38717323  1
  N  N28  1  0.40677935  0.59996743  0.88717323  1
  N  N29  1  0.91173240  0.86478524  0.58655317  1
