# generated using pymatgen
data_CsBaCr3F12
_symmetry_space_group_name_H-M   'P 1'
_cell_length_a   10.08458131
_cell_length_b   10.11237428
_cell_length_c   13.65326342
_cell_angle_alpha   78.92523698
_cell_angle_beta   68.32690989
_cell_angle_gamma   60.09087427
_symmetry_Int_Tables_number   1
_chemical_formula_structural   CsBaCr3F12
_chemical_formula_sum   'Cs4 Ba4 Cr12 F48'
_cell_volume   1121.53481376
_cell_formula_units_Z   4
loop_
 _symmetry_equiv_pos_site_id
 _symmetry_equiv_pos_as_xyz
  1  'x, y, z'
loop_
 _atom_site_type_symbol
 _atom_site_label
 _atom_site_symmetry_multiplicity
 _atom_site_fract_x
 _atom_site_fract_y
 _atom_site_fract_z
 _atom_site_occupancy
  Cs  Cs0  1  0.27449521  0.25867466  0.96490615  1
  Cs  Cs1  1  0.50192397  0.75867466  0.46490615  1
  Cs  Cs2  1  0.72550479  0.74132534  0.03509385  1
  Cs  Cs3  1  0.49807603  0.24132534  0.53509385  1
  Ba  Ba4  1  0.74130117  0.25632430  0.00155806  1
  Ba  Ba5  1  0.00081647  0.75632430  0.50155806  1
  Ba  Ba6  1  0.99918353  0.24367570  0.49844194  1
  Ba  Ba7  1  0.25869883  0.74367570  0.99844194  1
  Cr  Cr8  1  0.14740728  0.67366412  0.76852244  1
  Cr  Cr9  1  0.84736597  0.96050643  0.23857246  1
  Cr  Cr10  1  0.95355514  0.46050643  0.73857246  1
  Cr  Cr11  1  0.41022252  0.53953773  0.27149521  1
  Cr  Cr12  1  0.58977748  0.46046227  0.72850479  1
  Cr  Cr13  1  0.85259272  0.32633588  0.23147756  1
  Cr  Cr14  1  0.22125546  0.96046227  0.22850479  1
  Cr  Cr15  1  0.41040616  0.17366412  0.26852244  1
  Cr  Cr16  1  0.04644486  0.53949357  0.26142754  1
  Cr  Cr17  1  0.15263403  0.03949357  0.76142754  1
  Cr  Cr18  1  0.77874454  0.03953773  0.77149521  1
  Cr  Cr19  1  0.58959384  0.82633588  0.73147756  1
  F  F20  1  0.06252874  0.45631424  0.58889401  1
  F  F21  1  0.18059237  0.60612871  0.29267106  1
  F  F22  1  0.21245122  0.82212829  0.78042615  1
  F  F23  1  0.18243720  0.03832246  0.61568885  1
  F  F24  1  0.45218730  0.32731338  0.30184240  1
  F  F25  1  0.07939214  0.89387129  0.20732894  1
  F  F26  1  0.08134307  0.17268662  0.19815760  1
  F  F27  1  0.47733267  0.52098570  0.12019750  1
  F  F28  1  0.89226301  0.95631424  0.08889401  1
  F  F29  1  0.11299871  0.25000000  0.75000000  1
  F  F30  1  0.66366408  0.42903523  0.58037180  1
  F  F31  1  0.37546841  0.75000000  0.25000000  1
  F  F32  1  0.81940763  0.39387129  0.70732894  1
  F  F33  1  0.11743108  0.64006292  0.91636434  1
  F  F34  1  0.83644851  0.46167754  0.88431115  1
  F  F35  1  0.91865693  0.82731338  0.80184240  1
  F  F36  1  0.78754878  0.17787171  0.21957385  1
  F  F37  1  0.09787526  0.50948655  0.76977612  1
  F  F38  1  0.62286206  0.00948655  0.26977612  1
  F  F39  1  0.54781270  0.67268662  0.69815760  1
  F  F40  1  0.88256892  0.35993708  0.08363566  1
  F  F41  1  0.48993738  0.21240973  0.12221605  1
  F  F42  1  0.92060786  0.10612871  0.79267106  1
  F  F43  1  0.90212474  0.49051345  0.23022388  1
  F  F44  1  0.81500567  0.67787171  0.71957385  1
  F  F45  1  0.67385834  0.85993708  0.58363566  1
  F  F46  1  0.81756280  0.96167754  0.38431115  1
  F  F47  1  0.10773699  0.04368576  0.91110599  1
  F  F48  1  0.52266733  0.47901430  0.87980250  1
  F  F49  1  0.82456317  0.28759027  0.37778395  1
  F  F50  1  0.62767999  0.48845870  0.26395280  1
  F  F51  1  0.33633592  0.57096477  0.41962820  1
  F  F52  1  0.61990851  0.98845870  0.76395280  1
  F  F53  1  0.32692889  0.92903523  0.08037180  1
  F  F54  1  0.93747126  0.54368576  0.41110599  1
  F  F55  1  0.16355149  0.53832246  0.11568885  1
  F  F56  1  0.62453159  0.25000000  0.75000000  1
  F  F57  1  0.11851588  0.97901430  0.37980250  1
  F  F58  1  0.17543683  0.71240973  0.62221605  1
  F  F59  1  0.88148412  0.02098570  0.62019750  1
  F  F60  1  0.18499433  0.32212829  0.28042615  1
  F  F61  1  0.32614166  0.14006292  0.41636434  1
  F  F62  1  0.88700129  0.75000000  0.25000000  1
  F  F63  1  0.38009149  0.01154130  0.23604720  1
  F  F64  1  0.67307111  0.07096477  0.91962820  1
  F  F65  1  0.51006262  0.78759027  0.87778395  1
  F  F66  1  0.37713794  0.99051345  0.73022388  1
  F  F67  1  0.37232001  0.51154130  0.73604720  1
