# generated using pymatgen
data_Lu14(InCo)3
_symmetry_space_group_name_H-M   'P 1'
_cell_length_a   9.34036426
_cell_length_b   9.34036426
_cell_length_c   22.76693217
_cell_angle_alpha   90.00000000
_cell_angle_beta   90.00000000
_cell_angle_gamma   90.00000000
_symmetry_Int_Tables_number   1
_chemical_formula_structural   Lu14(InCo)3
_chemical_formula_sum   'Lu56 In12 Co12'
_cell_volume   1986.24190582
_cell_formula_units_Z   4
loop_
 _symmetry_equiv_pos_site_id
 _symmetry_equiv_pos_as_xyz
  1  'x, y, z'
loop_
 _atom_site_type_symbol
 _atom_site_label
 _atom_site_symmetry_multiplicity
 _atom_site_fract_x
 _atom_site_fract_y
 _atom_site_fract_z
 _atom_site_occupancy
  Lu  Lu0  1  0.06640838  0.06641759  0.60486116  1
  Lu  Lu1  1  0.06641759  0.06640838  0.10486116  1
  Lu  Lu2  1  0.05975088  0.94024912  0.75000000  1
  Lu  Lu3  1  0.93359162  0.93358241  0.39513884  1
  Lu  Lu4  1  0.93358241  0.93359162  0.89513884  1
  Lu  Lu5  1  0.06641759  0.43359162  0.10486116  1
  Lu  Lu6  1  0.25000000  0.75000000  0.85448714  1
  Lu  Lu7  1  0.25000000  0.55883130  0.98411368  1
  Lu  Lu8  1  0.55975088  0.05975088  0.25000000  1
  Lu  Lu9  1  0.55975088  0.44024912  0.25000000  1
  Lu  Lu10  1  0.43358241  0.06640838  0.10486116  1
  Lu  Lu11  1  0.56641759  0.93359162  0.89513884  1
  Lu  Lu12  1  0.94116870  0.25000000  0.48411368  1
  Lu  Lu13  1  0.75000000  0.56142790  0.53073314  1
  Lu  Lu14  1  0.75000000  0.75000000  0.78655327  1
  Lu  Lu15  1  0.94024912  0.44024912  0.25000000  1
  Lu  Lu16  1  0.75000000  0.75000000  0.28655327  1
  Lu  Lu17  1  0.94024912  0.05975088  0.25000000  1
  Lu  Lu18  1  0.75000000  0.05883130  0.01588632  1
  Lu  Lu19  1  0.75000000  0.25000000  0.35448714  1
  Lu  Lu20  1  0.93359162  0.56641759  0.39513884  1
  Lu  Lu21  1  0.75000000  0.44116870  0.01588632  1
  Lu  Lu22  1  0.43359162  0.06641759  0.60486116  1
  Lu  Lu23  1  0.44861343  0.75000000  0.19711175  1
  Lu  Lu24  1  0.56640838  0.56641759  0.39513884  1
  Lu  Lu25  1  0.93358241  0.56640838  0.89513884  1
  Lu  Lu26  1  0.43358241  0.43359162  0.10486116  1
  Lu  Lu27  1  0.06640838  0.43358241  0.60486116  1
  Lu  Lu28  1  0.05975088  0.55975088  0.75000000  1
  Lu  Lu29  1  0.43857210  0.25000000  0.96926686  1
  Lu  Lu30  1  0.56641759  0.56640838  0.89513884  1
  Lu  Lu31  1  0.44116870  0.75000000  0.51588632  1
  Lu  Lu32  1  0.25000000  0.43857210  0.46926686  1
  Lu  Lu33  1  0.05138657  0.75000000  0.19711175  1
  Lu  Lu34  1  0.93857210  0.75000000  0.03073314  1
  Lu  Lu35  1  0.75000000  0.93857210  0.53073314  1
  Lu  Lu36  1  0.25000000  0.25000000  0.71344673  1
  Lu  Lu37  1  0.44024912  0.55975088  0.75000000  1
  Lu  Lu38  1  0.75000000  0.05138657  0.69711175  1
  Lu  Lu39  1  0.94861343  0.25000000  0.80288825  1
  Lu  Lu40  1  0.25000000  0.94861343  0.30288825  1
  Lu  Lu41  1  0.25000000  0.06142790  0.46926686  1
  Lu  Lu42  1  0.75000000  0.44861343  0.69711175  1
  Lu  Lu43  1  0.75000000  0.25000000  0.14551286  1
  Lu  Lu44  1  0.25000000  0.94116870  0.98411368  1
  Lu  Lu45  1  0.55138657  0.25000000  0.80288825  1
  Lu  Lu46  1  0.25000000  0.75000000  0.64551286  1
  Lu  Lu47  1  0.56142790  0.75000000  0.03073314  1
  Lu  Lu48  1  0.25000000  0.55138657  0.30288825  1
  Lu  Lu49  1  0.43359162  0.43358241  0.60486116  1
  Lu  Lu50  1  0.05883130  0.75000000  0.51588632  1
  Lu  Lu51  1  0.55883130  0.25000000  0.48411368  1
  Lu  Lu52  1  0.44024912  0.94024912  0.75000000  1
  Lu  Lu53  1  0.25000000  0.25000000  0.21344673  1
  Lu  Lu54  1  0.06142790  0.25000000  0.96926686  1
  Lu  Lu55  1  0.56640838  0.93358241  0.39513884  1
  In  In56  1  0.75000000  0.25000000  0.90653455  1
  In  In57  1  0.25000000  0.75000000  0.09346545  1
  In  In58  1  0.25000000  0.75000000  0.40653455  1
  In  In59  1  0.25000000  0.08979964  0.85468055  1
  In  In60  1  0.91020036  0.75000000  0.64531945  1
  In  In61  1  0.41020036  0.25000000  0.35468055  1
  In  In62  1  0.75000000  0.25000000  0.59346545  1
  In  In63  1  0.08979964  0.25000000  0.35468055  1
  In  In64  1  0.25000000  0.41020036  0.85468055  1
  In  In65  1  0.75000000  0.58979964  0.14531945  1
  In  In66  1  0.58979964  0.75000000  0.64531945  1
  In  In67  1  0.75000000  0.91020036  0.14531945  1
  Co  Co68  1  0.75000000  0.46875721  0.81194041  1
  Co  Co69  1  0.25000000  0.25000000  0.05122645  1
  Co  Co70  1  0.03124279  0.75000000  0.31194041  1
  Co  Co71  1  0.25000000  0.53124279  0.18805959  1
  Co  Co72  1  0.75000000  0.03124279  0.81194041  1
  Co  Co73  1  0.46875721  0.75000000  0.31194041  1
  Co  Co74  1  0.25000000  0.25000000  0.55122645  1
  Co  Co75  1  0.25000000  0.96875721  0.18805959  1
  Co  Co76  1  0.53124279  0.25000000  0.68805959  1
  Co  Co77  1  0.75000000  0.75000000  0.44877355  1
  Co  Co78  1  0.96875721  0.25000000  0.68805959  1
  Co  Co79  1  0.75000000  0.75000000  0.94877355  1
