# generated using pymatgen
data_Sm11Cd45
_symmetry_space_group_name_H-M   'P 1'
_cell_length_a   15.56299113
_cell_length_b   15.56299119
_cell_length_c   15.56299152
_cell_angle_alpha   59.99999929
_cell_angle_beta   59.99999916
_cell_angle_gamma   59.99999828
_symmetry_Int_Tables_number   1
_chemical_formula_structural   Sm11Cd45
_chemical_formula_sum   'Sm22 Cd90'
_cell_volume   2665.41117118
_cell_formula_units_Z   2
loop_
 _symmetry_equiv_pos_site_id
 _symmetry_equiv_pos_as_xyz
  1  'x, y, z'
loop_
 _atom_site_type_symbol
 _atom_site_label
 _atom_site_symmetry_multiplicity
 _atom_site_fract_x
 _atom_site_fract_y
 _atom_site_fract_z
 _atom_site_occupancy
  Sm  Sm0  1  0.66153563  0.01539311  0.66153563  1
  Sm  Sm1  1  0.40668006  0.77995981  0.40668006  1
  Sm  Sm2  1  0.77995981  0.40668006  0.40668006  1
  Sm  Sm3  1  0.01403661  0.01403661  0.33307823  1
  Sm  Sm4  1  0.01403661  0.01403661  0.63884855  1
  Sm  Sm5  1  0.40668006  0.40668006  0.77995981  1
  Sm  Sm6  1  0.25000000  0.25000000  0.25000000  1
  Sm  Sm7  1  0.01539311  0.66153563  0.66153563  1
  Sm  Sm8  1  0.01403661  0.63884855  0.33307823  1
  Sm  Sm9  1  0.33307823  0.01403661  0.01403661  1
  Sm  Sm10  1  0.40668006  0.40668006  0.40668006  1
  Sm  Sm11  1  0.63884855  0.01403661  0.01403661  1
  Sm  Sm12  1  0.33307823  0.01403661  0.63884855  1
  Sm  Sm13  1  0.01403661  0.33307823  0.01403661  1
  Sm  Sm14  1  0.63884855  0.33307823  0.01403661  1
  Sm  Sm15  1  0.01403661  0.33307823  0.63884855  1
  Sm  Sm16  1  0.00000000  0.00000000  0.00000000  1
  Sm  Sm17  1  0.63884855  0.01403661  0.33307823  1
  Sm  Sm18  1  0.01403661  0.63884855  0.01403661  1
  Sm  Sm19  1  0.66153563  0.66153563  0.66153563  1
  Sm  Sm20  1  0.66153563  0.66153563  0.01539311  1
  Sm  Sm21  1  0.33307823  0.63884855  0.01403661  1
  Cd  Cd22  1  0.26261624  0.86332596  0.61144156  1
  Cd  Cd23  1  0.91099439  0.58900561  0.58900561  1
  Cd  Cd24  1  0.51243637  0.83328244  0.51243637  1
  Cd  Cd25  1  0.14184482  0.83328244  0.51243637  1
  Cd  Cd26  1  0.26261624  0.86332596  0.26261624  1
  Cd  Cd27  1  0.08315693  0.08315693  0.08315693  1
  Cd  Cd28  1  0.15642747  0.84357253  0.84357253  1
  Cd  Cd29  1  0.15642747  0.15642747  0.84357253  1
  Cd  Cd30  1  0.26381987  0.91206004  0.91206004  1
  Cd  Cd31  1  0.06786441  0.40366852  0.76423353  1
  Cd  Cd32  1  0.51243637  0.51243637  0.83328244  1
  Cd  Cd33  1  0.45045080  0.26891873  0.64031524  1
  Cd  Cd34  1  0.86332596  0.26261624  0.61144156  1
  Cd  Cd35  1  0.83328244  0.14184482  0.51243637  1
  Cd  Cd36  1  0.16373696  0.16373696  0.16373696  1
  Cd  Cd37  1  0.26261624  0.26261624  0.61144156  1
  Cd  Cd38  1  0.82972894  0.51081318  0.82972894  1
  Cd  Cd39  1  0.86332596  0.61144156  0.26261624  1
  Cd  Cd40  1  0.26261624  0.61144156  0.26261624  1
  Cd  Cd41  1  0.76423353  0.06786441  0.40366852  1
  Cd  Cd42  1  0.64031524  0.64031524  0.26891873  1
  Cd  Cd43  1  0.82972894  0.82972894  0.51081318  1
  Cd  Cd44  1  0.64031524  0.26891873  0.45045080  1
  Cd  Cd45  1  0.39069584  0.20140630  0.39069584  1
  Cd  Cd46  1  0.64031524  0.64031524  0.45045080  1
  Cd  Cd47  1  0.39069584  0.39069584  0.01720203  1
  Cd  Cd48  1  0.51243637  0.51243637  0.14184482  1
  Cd  Cd49  1  0.40366852  0.76423353  0.06786441  1
  Cd  Cd50  1  0.64031524  0.26891873  0.64031524  1
  Cd  Cd51  1  0.58900561  0.91099439  0.58900561  1
  Cd  Cd52  1  0.51081318  0.82972894  0.82972894  1
  Cd  Cd53  1  0.39069584  0.01720203  0.39069584  1
  Cd  Cd54  1  0.76423353  0.40366852  0.76423353  1
  Cd  Cd55  1  0.01720203  0.39069584  0.39069584  1
  Cd  Cd56  1  0.39069584  0.01720203  0.20140630  1
  Cd  Cd57  1  0.91206004  0.91206004  0.26381987  1
  Cd  Cd58  1  0.84357253  0.15642747  0.84357253  1
  Cd  Cd59  1  0.45045080  0.64031524  0.64031524  1
  Cd  Cd60  1  0.82972894  0.82972894  0.82972894  1
  Cd  Cd61  1  0.26891873  0.64031524  0.64031524  1
  Cd  Cd62  1  0.01720203  0.39069584  0.20140630  1
  Cd  Cd63  1  0.75052922  0.08315693  0.08315693  1
  Cd  Cd64  1  0.58900561  0.91099439  0.91099439  1
  Cd  Cd65  1  0.14184482  0.51243637  0.83328244  1
  Cd  Cd66  1  0.39069584  0.39069584  0.20140630  1
  Cd  Cd67  1  0.75000000  0.75000000  0.75000000  1
  Cd  Cd68  1  0.61144156  0.26261624  0.86332596  1
  Cd  Cd69  1  0.83328244  0.51243637  0.51243637  1
  Cd  Cd70  1  0.91206004  0.91206004  0.91206004  1
  Cd  Cd71  1  0.26261624  0.61144156  0.86332596  1
  Cd  Cd72  1  0.16373696  0.16373696  0.50878913  1
  Cd  Cd73  1  0.64031524  0.45045080  0.64031524  1
  Cd  Cd74  1  0.51243637  0.83328244  0.14184482  1
  Cd  Cd75  1  0.06786441  0.76423353  0.76423353  1
  Cd  Cd76  1  0.40366852  0.76423353  0.76423353  1
  Cd  Cd77  1  0.08315693  0.08315693  0.75052922  1
  Cd  Cd78  1  0.26891873  0.64031524  0.45045080  1
  Cd  Cd79  1  0.61144156  0.26261624  0.26261624  1
  Cd  Cd80  1  0.86332596  0.26261624  0.26261624  1
  Cd  Cd81  1  0.76423353  0.40366852  0.06786441  1
  Cd  Cd82  1  0.14184482  0.51243637  0.51243637  1
  Cd  Cd83  1  0.84357253  0.84357253  0.15642747  1
  Cd  Cd84  1  0.76423353  0.76423353  0.40366852  1
  Cd  Cd85  1  0.51243637  0.14184482  0.51243637  1
  Cd  Cd86  1  0.20140630  0.01720203  0.39069584  1
  Cd  Cd87  1  0.26261624  0.26261624  0.86332596  1
  Cd  Cd88  1  0.45045080  0.64031524  0.26891873  1
  Cd  Cd89  1  0.50878913  0.16373696  0.16373696  1
  Cd  Cd90  1  0.84357253  0.15642747  0.15642747  1
  Cd  Cd91  1  0.20140630  0.39069584  0.39069584  1
  Cd  Cd92  1  0.51243637  0.14184482  0.83328244  1
  Cd  Cd93  1  0.91099439  0.91099439  0.58900561  1
  Cd  Cd94  1  0.58900561  0.58900561  0.91099439  1
  Cd  Cd95  1  0.91099439  0.58900561  0.91099439  1
  Cd  Cd96  1  0.91206004  0.26381987  0.91206004  1
  Cd  Cd97  1  0.26891873  0.45045080  0.64031524  1
  Cd  Cd98  1  0.40366852  0.06786441  0.76423353  1
  Cd  Cd99  1  0.01720203  0.20140630  0.39069584  1
  Cd  Cd100  1  0.50000000  0.50000000  0.50000000  1
  Cd  Cd101  1  0.61144156  0.86332596  0.26261624  1
  Cd  Cd102  1  0.16373696  0.50878913  0.16373696  1
  Cd  Cd103  1  0.08315693  0.75052922  0.08315693  1
  Cd  Cd104  1  0.64031524  0.45045080  0.26891873  1
  Cd  Cd105  1  0.39069584  0.20140630  0.01720203  1
  Cd  Cd106  1  0.76423353  0.06786441  0.76423353  1
  Cd  Cd107  1  0.20140630  0.39069584  0.01720203  1
  Cd  Cd108  1  0.76423353  0.76423353  0.06786441  1
  Cd  Cd109  1  0.83328244  0.51243637  0.14184482  1
  Cd  Cd110  1  0.15642747  0.84357253  0.15642747  1
  Cd  Cd111  1  0.06786441  0.76423353  0.40366852  1
