# generated using pymatgen
data_YErO3
_symmetry_space_group_name_H-M   'P 1'
_cell_length_a   5.68258085
_cell_length_b   5.94374926
_cell_length_c   8.37516959
_cell_angle_alpha   90.00000000
_cell_angle_beta   90.00000000
_cell_angle_gamma   90.00000000
_symmetry_Int_Tables_number   1
_chemical_formula_structural   YErO3
_chemical_formula_sum   'Y4 Er4 O12'
_cell_volume   282.87835222
_cell_formula_units_Z   4
loop_
 _symmetry_equiv_pos_site_id
 _symmetry_equiv_pos_as_xyz
  1  'x, y, z'
loop_
 _atom_site_type_symbol
 _atom_site_label
 _atom_site_symmetry_multiplicity
 _atom_site_fract_x
 _atom_site_fract_y
 _atom_site_fract_z
 _atom_site_occupancy
  Y  Y0  1  0.01383438  0.94778067  0.75000000  1
  Y  Y1  1  0.48616562  0.44778067  0.75000000  1
  Y  Y2  1  0.51383438  0.55221933  0.25000000  1
  Y  Y3  1  0.98616562  0.05221933  0.25000000  1
  Er  Er4  1  0.00000000  0.50000000  0.00000000  1
  Er  Er5  1  0.00000000  0.50000000  0.50000000  1
  Er  Er6  1  0.50000000  0.00000000  0.00000000  1
  Er  Er7  1  0.50000000  0.00000000  0.50000000  1
  O  O8  1  0.14466442  0.42171315  0.25000000  1
  O  O9  1  0.17927083  0.18295596  0.57563015  1
  O  O10  1  0.17927083  0.18295596  0.92436985  1
  O  O11  1  0.32072917  0.68295596  0.92436985  1
  O  O12  1  0.32072917  0.68295596  0.57563015  1
  O  O13  1  0.35533558  0.92171315  0.25000000  1
  O  O14  1  0.64466442  0.07828685  0.75000000  1
  O  O15  1  0.67927083  0.31704404  0.42436985  1
  O  O16  1  0.67927083  0.31704404  0.07563015  1
  O  O17  1  0.82072917  0.81704404  0.07563015  1
  O  O18  1  0.82072917  0.81704404  0.42436985  1
  O  O19  1  0.85533558  0.57828685  0.75000000  1
