# generated using pymatgen
data_Na2V3O7
_symmetry_space_group_name_H-M   'P 1'
_cell_length_a   11.09423490
_cell_length_b   11.09423521
_cell_length_c   9.70143029
_cell_angle_alpha   90.00000000
_cell_angle_beta   90.00000000
_cell_angle_gamma   119.99999905
_symmetry_Int_Tables_number   1
_chemical_formula_structural   Na2V3O7
_chemical_formula_sum   'Na12 V18 O42'
_cell_volume   1034.09664527
_cell_formula_units_Z   6
loop_
 _symmetry_equiv_pos_site_id
 _symmetry_equiv_pos_as_xyz
  1  'x, y, z'
loop_
 _atom_site_type_symbol
 _atom_site_label
 _atom_site_symmetry_multiplicity
 _atom_site_fract_x
 _atom_site_fract_y
 _atom_site_fract_z
 _atom_site_occupancy
  Na  Na0  1  0.52152799  0.02929157  0.24887520  1
  Na  Na1  1  0.02929157  0.50776358  0.75112480  1
  Na  Na2  1  0.47847201  0.97070843  0.75112480  1
  Na  Na3  1  0.49223642  0.52152799  0.75112480  1
  Na  Na4  1  0.66666700  0.33333300  0.56818859  1
  Na  Na5  1  0.97070843  0.49223642  0.24887520  1
  Na  Na6  1  0.50776358  0.47847201  0.24887520  1
  Na  Na7  1  0.33333300  0.66666700  0.07042205  1
  Na  Na8  1  0.00000000  0.00000000  0.00000000  1
  Na  Na9  1  0.66666700  0.33333300  0.92957795  1
  Na  Na10  1  0.00000000  0.00000000  0.50000000  1
  Na  Na11  1  0.33333300  0.66666700  0.43181141  1
  V  V12  1  0.18605288  0.86986629  0.90004065  1
  V  V13  1  0.79275457  0.68295342  0.40104501  1
  V  V14  1  0.31527240  0.14840850  0.75053836  1
  V  V15  1  0.68295342  0.89019886  0.59895499  1
  V  V16  1  0.86986629  0.68381342  0.09995935  1
  V  V17  1  0.83313610  0.68472760  0.75053836  1
  V  V18  1  0.31618658  0.18605288  0.09995935  1
  V  V19  1  0.31704658  0.10980114  0.40104501  1
  V  V20  1  0.68472760  0.85159150  0.24946164  1
  V  V21  1  0.89019886  0.20724543  0.40104501  1
  V  V22  1  0.20724543  0.31704658  0.59895499  1
  V  V23  1  0.16686390  0.31527240  0.24946164  1
  V  V24  1  0.13013371  0.31618658  0.90004065  1
  V  V25  1  0.85159150  0.16686390  0.75053836  1
  V  V26  1  0.81394712  0.13013371  0.09995935  1
  V  V27  1  0.14840850  0.83313610  0.24946164  1
  V  V28  1  0.68381342  0.81394712  0.90004065  1
  V  V29  1  0.10980114  0.79275457  0.59895499  1
  O  O30  1  0.83305779  0.08044942  0.56709050  1
  O  O31  1  0.16694221  0.91955058  0.43290950  1
  O  O32  1  0.83398848  0.52167648  0.06454175  1
  O  O33  1  0.33162162  0.48033905  0.56303953  1
  O  O34  1  0.08044942  0.24739163  0.43290950  1
  O  O35  1  0.75612283  0.05125891  0.28893833  1
  O  O36  1  0.48033905  0.14871743  0.43696047  1
  O  O37  1  0.21490939  0.72710386  0.24781000  1
  O  O38  1  0.17400772  0.23799226  0.06762097  1
  O  O39  1  0.05125891  0.29513608  0.71106167  1
  O  O40  1  0.72957457  0.70184067  0.21129071  1
  O  O41  1  0.51966095  0.85128257  0.56303953  1
  O  O42  1  0.47832352  0.31231200  0.06454175  1
  O  O43  1  0.02773391  0.72957457  0.78870929  1
  O  O44  1  0.23799226  0.06398454  0.93237903  1
  O  O45  1  0.14871743  0.66837838  0.56303953  1
  O  O46  1  0.97226609  0.27042543  0.21129071  1
  O  O47  1  0.94874109  0.70486392  0.28893833  1
  O  O48  1  0.29815933  0.02773391  0.21129071  1
  O  O49  1  0.68768800  0.16601152  0.06454175  1
  O  O50  1  0.06398454  0.82599228  0.06762097  1
  O  O51  1  0.52167648  0.68768800  0.93545825  1
  O  O52  1  0.75260837  0.83305779  0.43290950  1
  O  O53  1  0.51219447  0.78509061  0.24781000  1
  O  O54  1  0.27289614  0.48780553  0.24781000  1
  O  O55  1  0.70184067  0.97226609  0.78870929  1
  O  O56  1  0.82599228  0.76200774  0.93237903  1
  O  O57  1  0.24387717  0.94874109  0.71106167  1
  O  O58  1  0.66837838  0.51966095  0.43696047  1
  O  O59  1  0.91955058  0.75260837  0.56709050  1
  O  O60  1  0.93601546  0.17400772  0.93237903  1
  O  O61  1  0.85128257  0.33162162  0.43696047  1
  O  O62  1  0.78509061  0.27289614  0.75219000  1
  O  O63  1  0.31231200  0.83398848  0.93545825  1
  O  O64  1  0.27042543  0.29815933  0.78870929  1
  O  O65  1  0.70486392  0.75612283  0.71106167  1
  O  O66  1  0.48780553  0.21490939  0.75219000  1
  O  O67  1  0.72710386  0.51219447  0.75219000  1
  O  O68  1  0.16601152  0.47832352  0.93545825  1
  O  O69  1  0.76200774  0.93601546  0.06762097  1
  O  O70  1  0.24739163  0.16694221  0.56709050  1
  O  O71  1  0.29513608  0.24387717  0.28893833  1
