# generated using pymatgen
data_NaW6CCl18
_symmetry_space_group_name_H-M   'P 1'
_cell_length_a   9.27185496
_cell_length_b   9.27185519
_cell_length_c   18.06025673
_cell_angle_alpha   90.00000000
_cell_angle_beta   90.00000000
_cell_angle_gamma   119.99999915
_symmetry_Int_Tables_number   1
_chemical_formula_structural   NaW6CCl18
_chemical_formula_sum   'Na2 W12 C2 Cl36'
_cell_volume   1344.58364548
_cell_formula_units_Z   2
loop_
 _symmetry_equiv_pos_site_id
 _symmetry_equiv_pos_as_xyz
  1  'x, y, z'
loop_
 _atom_site_type_symbol
 _atom_site_label
 _atom_site_symmetry_multiplicity
 _atom_site_fract_x
 _atom_site_fract_y
 _atom_site_fract_z
 _atom_site_occupancy
  Na  Na0  1  0.00000000  0.00000000  0.00000000  1
  Na  Na1  1  0.00000000  0.00000000  0.50000000  1
  W  W2  1  0.30423265  0.48577210  0.16682020  1
  W  W3  1  0.69576735  0.51422790  0.66682020  1
  W  W4  1  0.18153945  0.69576735  0.16682020  1
  W  W5  1  0.48577210  0.18153945  0.83317980  1
  W  W6  1  0.51422790  0.81846055  0.16682020  1
  W  W7  1  0.18153945  0.69576735  0.33317980  1
  W  W8  1  0.30423265  0.48577210  0.33317980  1
  W  W9  1  0.81846055  0.30423265  0.83317980  1
  W  W10  1  0.51422790  0.81846055  0.33317980  1
  W  W11  1  0.48577210  0.18153945  0.66682020  1
  W  W12  1  0.69576735  0.51422790  0.83317980  1
  W  W13  1  0.81846055  0.30423265  0.66682020  1
  C  C14  1  0.66666700  0.33333300  0.75000000  1
  C  C15  1  0.33333300  0.66666700  0.25000000  1
  Cl  Cl16  1  0.73516514  0.76502123  0.89738948  1
  Cl  Cl17  1  0.80264512  0.08759869  0.75000000  1
  Cl  Cl18  1  0.43156659  0.94928057  0.75000000  1
  Cl  Cl19  1  0.97014390  0.73516514  0.10261052  1
  Cl  Cl20  1  0.36886027  0.88977031  0.07695955  1
  Cl  Cl21  1  0.02985610  0.26483486  0.89738948  1
  Cl  Cl22  1  0.88977031  0.52091004  0.92304045  1
  Cl  Cl23  1  0.23497877  0.97014390  0.89738948  1
  Cl  Cl24  1  0.36886027  0.88977031  0.42304045  1
  Cl  Cl25  1  0.47908996  0.36886027  0.57695955  1
  Cl  Cl26  1  0.63113973  0.11022969  0.57695955  1
  Cl  Cl27  1  0.08759869  0.28495358  0.25000000  1
  Cl  Cl28  1  0.51771398  0.56843341  0.75000000  1
  Cl  Cl29  1  0.52091004  0.63113973  0.42304045  1
  Cl  Cl30  1  0.47908996  0.36886027  0.92304045  1
  Cl  Cl31  1  0.26483486  0.23497877  0.10261052  1
  Cl  Cl32  1  0.05071943  0.48228602  0.75000000  1
  Cl  Cl33  1  0.52091004  0.63113973  0.07695955  1
  Cl  Cl34  1  0.56843341  0.05071943  0.25000000  1
  Cl  Cl35  1  0.11022969  0.47908996  0.07695955  1
  Cl  Cl36  1  0.48228602  0.43156659  0.25000000  1
  Cl  Cl37  1  0.26483486  0.23497877  0.39738948  1
  Cl  Cl38  1  0.63113973  0.11022969  0.92304045  1
  Cl  Cl39  1  0.76502123  0.02985610  0.39738948  1
  Cl  Cl40  1  0.76502123  0.02985610  0.10261052  1
  Cl  Cl41  1  0.94928057  0.51771398  0.25000000  1
  Cl  Cl42  1  0.23497877  0.97014390  0.60261052  1
  Cl  Cl43  1  0.88977031  0.52091004  0.57695955  1
  Cl  Cl44  1  0.02985610  0.26483486  0.60261052  1
  Cl  Cl45  1  0.19735488  0.91240131  0.25000000  1
  Cl  Cl46  1  0.91240131  0.71504642  0.75000000  1
  Cl  Cl47  1  0.97014390  0.73516514  0.39738948  1
  Cl  Cl48  1  0.71504642  0.80264512  0.25000000  1
  Cl  Cl49  1  0.11022969  0.47908996  0.42304045  1
  Cl  Cl50  1  0.28495358  0.19735488  0.75000000  1
  Cl  Cl51  1  0.73516514  0.76502123  0.60261052  1
