# generated using pymatgen
data_SnHg6(As2Br3)2
_symmetry_space_group_name_H-M   'P 1'
_cell_length_a   12.74700582
_cell_length_b   12.74700582
_cell_length_c   12.74700582
_cell_angle_alpha   90.00000000
_cell_angle_beta   90.00000000
_cell_angle_gamma   90.00000000
_symmetry_Int_Tables_number   1
_chemical_formula_structural   SnHg6(As2Br3)2
_chemical_formula_sum   'Sn4 Hg24 As16 Br24'
_cell_volume   2071.21199373
_cell_formula_units_Z   4
loop_
 _symmetry_equiv_pos_site_id
 _symmetry_equiv_pos_as_xyz
  1  'x, y, z'
loop_
 _atom_site_type_symbol
 _atom_site_label
 _atom_site_symmetry_multiplicity
 _atom_site_fract_x
 _atom_site_fract_y
 _atom_site_fract_z
 _atom_site_occupancy
  Sn  Sn0  1  0.72659531  0.27340469  0.77340469  1
  Sn  Sn1  1  0.27340469  0.77340469  0.72659531  1
  Sn  Sn2  1  0.77340469  0.72659531  0.27340469  1
  Sn  Sn3  1  0.22659531  0.22659531  0.22659531  1
  Hg  Hg4  1  0.52825349  0.76551087  0.53811915  1
  Hg  Hg5  1  0.23448913  0.03811915  0.97174651  1
  Hg  Hg6  1  0.47347312  0.51780991  0.26193195  1
  Hg  Hg7  1  0.96188085  0.47174651  0.26551087  1
  Hg  Hg8  1  0.01780991  0.23806805  0.52652688  1
  Hg  Hg9  1  0.02825349  0.73448913  0.46188085  1
  Hg  Hg10  1  0.02652688  0.48219009  0.76193195  1
  Hg  Hg11  1  0.53811915  0.52825349  0.76551087  1
  Hg  Hg12  1  0.76193195  0.02652688  0.48219009  1
  Hg  Hg13  1  0.51780991  0.26193195  0.47347312  1
  Hg  Hg14  1  0.73806805  0.97347312  0.98219009  1
  Hg  Hg15  1  0.48219009  0.76193195  0.02652688  1
  Hg  Hg16  1  0.26193195  0.47347312  0.51780991  1
  Hg  Hg17  1  0.03811915  0.97174651  0.23448913  1
  Hg  Hg18  1  0.23806805  0.52652688  0.01780991  1
  Hg  Hg19  1  0.52652688  0.01780991  0.23806805  1
  Hg  Hg20  1  0.76551087  0.53811915  0.52825349  1
  Hg  Hg21  1  0.46188085  0.02825349  0.73448913  1
  Hg  Hg22  1  0.97347312  0.98219009  0.73806805  1
  Hg  Hg23  1  0.97174651  0.23448913  0.03811915  1
  Hg  Hg24  1  0.73448913  0.46188085  0.02825349  1
  Hg  Hg25  1  0.47174651  0.26551087  0.96188085  1
  Hg  Hg26  1  0.98219009  0.73806805  0.97347312  1
  Hg  Hg27  1  0.26551087  0.96188085  0.47174651  1
  As  As28  1  0.06730650  0.93269350  0.43269350  1
  As  As29  1  0.93171406  0.93171406  0.93171406  1
  As  As30  1  0.56730650  0.56730650  0.56730650  1
  As  As31  1  0.45665316  0.95665316  0.54334684  1
  As  As32  1  0.45591696  0.45591696  0.45591696  1
  As  As33  1  0.93269350  0.43269350  0.06730650  1
  As  As34  1  0.95591696  0.04408304  0.54408304  1
  As  As35  1  0.04334684  0.04334684  0.04334684  1
  As  As36  1  0.56828594  0.06828594  0.43171406  1
  As  As37  1  0.43171406  0.56828594  0.06828594  1
  As  As38  1  0.06828594  0.43171406  0.56828594  1
  As  As39  1  0.04408304  0.54408304  0.95591696  1
  As  As40  1  0.54408304  0.95591696  0.04408304  1
  As  As41  1  0.95665316  0.54334684  0.45665316  1
  As  As42  1  0.54334684  0.45665316  0.95665316  1
  As  As43  1  0.43269350  0.06730650  0.93269350  1
  Br  Br44  1  0.70685976  0.05561016  0.74146384  1
  Br  Br45  1  0.79314024  0.94438984  0.24146384  1
  Br  Br46  1  0.44438984  0.25853616  0.20685976  1
  Br  Br47  1  0.55561016  0.75853616  0.29314024  1
  Br  Br48  1  0.29710635  0.97365292  0.23244971  1
  Br  Br49  1  0.20685976  0.44438984  0.25853616  1
  Br  Br50  1  0.02634708  0.73244971  0.20289365  1
  Br  Br51  1  0.47365292  0.26755029  0.70289365  1
  Br  Br52  1  0.97365292  0.23244971  0.29710635  1
  Br  Br53  1  0.24146384  0.79314024  0.94438984  1
  Br  Br54  1  0.05561016  0.74146384  0.70685976  1
  Br  Br55  1  0.26755029  0.70289365  0.47365292  1
  Br  Br56  1  0.25853616  0.20685976  0.44438984  1
  Br  Br57  1  0.75853616  0.29314024  0.55561016  1
  Br  Br58  1  0.76755029  0.79710635  0.52634708  1
  Br  Br59  1  0.52634708  0.76755029  0.79710635  1
  Br  Br60  1  0.73244971  0.20289365  0.02634708  1
  Br  Br61  1  0.79710635  0.52634708  0.76755029  1
  Br  Br62  1  0.94438984  0.24146384  0.79314024  1
  Br  Br63  1  0.29314024  0.55561016  0.75853616  1
  Br  Br64  1  0.74146384  0.70685976  0.05561016  1
  Br  Br65  1  0.23244971  0.29710635  0.97365292  1
  Br  Br66  1  0.20289365  0.02634708  0.73244971  1
  Br  Br67  1  0.70289365  0.47365292  0.26755029  1
