# generated using pymatgen
data_BaMo(PO4)2
_symmetry_space_group_name_H-M   'P 1'
_cell_length_a   4.97787363
_cell_length_b   4.97787385
_cell_length_c   7.98541632
_cell_angle_alpha   86.27424915
_cell_angle_beta   86.27424897
_cell_angle_gamma   65.14874106
_symmetry_Int_Tables_number   1
_chemical_formula_structural   BaMo(PO4)2
_chemical_formula_sum   'Ba1 Mo1 P2 O8'
_cell_volume   179.01521781
_cell_formula_units_Z   1
loop_
 _symmetry_equiv_pos_site_id
 _symmetry_equiv_pos_as_xyz
  1  'x, y, z'
loop_
 _atom_site_type_symbol
 _atom_site_label
 _atom_site_symmetry_multiplicity
 _atom_site_fract_x
 _atom_site_fract_y
 _atom_site_fract_z
 _atom_site_occupancy
  Ba  Ba0  1  0.00000000  0.00000000  0.00000000  1
  Mo  Mo1  1  0.00000000  0.00000000  0.50000000  1
  P  P2  1  0.36770734  0.36770734  0.28834052  1
  P  P3  1  0.63229266  0.63229266  0.71165948  1
  O  O4  1  0.76667318  0.29047908  0.68932515  1
  O  O5  1  0.68882370  0.68882370  0.88847517  1
  O  O6  1  0.23332682  0.70952092  0.31067485  1
  O  O7  1  0.23402777  0.23402777  0.43463485  1
  O  O8  1  0.76597223  0.76597223  0.56536515  1
  O  O9  1  0.70952092  0.23332682  0.31067485  1
  O  O10  1  0.31117630  0.31117630  0.11152483  1
  O  O11  1  0.29047908  0.76667318  0.68932515  1
