# generated using pymatgen
data_Na2PSe3
_symmetry_space_group_name_H-M   'P 1'
_cell_length_a   8.10255758
_cell_length_b   8.98643022
_cell_length_c   8.98642992
_cell_angle_alpha   96.73317557
_cell_angle_beta   90.00000000
_cell_angle_gamma   90.00000000
_symmetry_Int_Tables_number   1
_chemical_formula_structural   Na2PSe3
_chemical_formula_sum   'Na8 P4 Se12'
_cell_volume   649.81657726
_cell_formula_units_Z   4
loop_
 _symmetry_equiv_pos_site_id
 _symmetry_equiv_pos_as_xyz
  1  'x, y, z'
loop_
 _atom_site_type_symbol
 _atom_site_label
 _atom_site_symmetry_multiplicity
 _atom_site_fract_x
 _atom_site_fract_y
 _atom_site_fract_z
 _atom_site_occupancy
  Na  Na0  1  0.25000000  0.27809467  0.22190533  1
  Na  Na1  1  0.75000000  0.22190533  0.27809467  1
  Na  Na2  1  0.15588534  0.81451487  0.18548513  1
  Na  Na3  1  0.84411466  0.18548513  0.81451487  1
  Na  Na4  1  0.25000000  0.77809467  0.72190533  1
  Na  Na5  1  0.34411466  0.31451487  0.68548513  1
  Na  Na6  1  0.65588534  0.68548513  0.31451487  1
  Na  Na7  1  0.75000000  0.72190533  0.77809467  1
  P  P8  1  0.44573181  0.07815336  0.92184664  1
  P  P9  1  0.05426819  0.57815336  0.42184664  1
  P  P10  1  0.55426819  0.92184664  0.07815336  1
  P  P11  1  0.94573181  0.42184664  0.57815336  1
  Se  Se12  1  0.53305607  0.00109051  0.69277854  1
  Se  Se13  1  0.53305607  0.30722146  0.99890949  1
  Se  Se14  1  0.17536012  0.05259896  0.94740104  1
  Se  Se15  1  0.96694393  0.80722146  0.49890949  1
  Se  Se16  1  0.96694393  0.50109051  0.19277854  1
  Se  Se17  1  0.46694393  0.69277854  0.00109051  1
  Se  Se18  1  0.67536012  0.44740104  0.55259896  1
  Se  Se19  1  0.32463988  0.55259896  0.44740104  1
  Se  Se20  1  0.03305607  0.19277854  0.50109051  1
  Se  Se21  1  0.03305607  0.49890949  0.80722146  1
  Se  Se22  1  0.46694393  0.99890949  0.30722146  1
  Se  Se23  1  0.82463988  0.94740104  0.05259896  1
