# generated using pymatgen
data_SmTlO2
_symmetry_space_group_name_H-M   'P 1'
_cell_length_a   3.60784307
_cell_length_b   3.60805334
_cell_length_c   12.99740267
_cell_angle_alpha   89.99734506
_cell_angle_beta   90.00128746
_cell_angle_gamma   119.99918787
_symmetry_Int_Tables_number   1
_chemical_formula_structural   SmTlO2
_chemical_formula_sum   'Sm2 Tl2 O4'
_cell_volume   146.52487089
_cell_formula_units_Z   2
loop_
 _symmetry_equiv_pos_site_id
 _symmetry_equiv_pos_as_xyz
  1  'x, y, z'
loop_
 _atom_site_type_symbol
 _atom_site_label
 _atom_site_symmetry_multiplicity
 _atom_site_fract_x
 _atom_site_fract_y
 _atom_site_fract_z
 _atom_site_occupancy
  Sm  Sm0  1  0.00000309  0.00000675  0.99999125  1
  Sm  Sm1  1  0.00000066  0.00002340  0.50000552  1
  Tl  Tl2  1  0.33331464  0.66657044  0.74999818  1
  Tl  Tl3  1  0.66668803  0.33333349  0.24999751  1
  O  O4  1  0.33331638  0.66672946  0.41174104  1
  O  O5  1  0.33331512  0.66663157  0.08826123  1
  O  O6  1  0.66667932  0.33336700  0.58826986  1
  O  O7  1  0.66668275  0.33333689  0.91173641  1
