# generated using pymatgen
data_Mg(SiB6)2
_symmetry_space_group_name_H-M   'P 1'
_cell_length_a   6.12518426
_cell_length_b   8.39675462
_cell_length_c   11.02933521
_cell_angle_alpha   90.00000000
_cell_angle_beta   90.00000000
_cell_angle_gamma   90.00000000
_symmetry_Int_Tables_number   1
_chemical_formula_structural   Mg(SiB6)2
_chemical_formula_sum   'Mg4 Si8 B48'
_cell_volume   567.25712039
_cell_formula_units_Z   4
loop_
 _symmetry_equiv_pos_site_id
 _symmetry_equiv_pos_as_xyz
  1  'x, y, z'
loop_
 _atom_site_type_symbol
 _atom_site_label
 _atom_site_symmetry_multiplicity
 _atom_site_fract_x
 _atom_site_fract_y
 _atom_site_fract_z
 _atom_site_occupancy
  Mg  Mg0  1  0.75000000  0.15910298  0.42991952  1
  Mg  Mg1  1  0.25000000  0.65910298  0.07008048  1
  Mg  Mg2  1  0.75000000  0.34089702  0.92991952  1
  Mg  Mg3  1  0.25000000  0.84089702  0.57008048  1
  Si  Si4  1  0.75000000  0.63223786  0.91845343  1
  Si  Si5  1  0.75000000  0.10116156  0.08466771  1
  Si  Si6  1  0.75000000  0.39883844  0.58466771  1
  Si  Si7  1  0.25000000  0.89883844  0.91533229  1
  Si  Si8  1  0.25000000  0.36776214  0.08154657  1
  Si  Si9  1  0.75000000  0.86776214  0.41845343  1
  Si  Si10  1  0.25000000  0.13223786  0.58154657  1
  Si  Si11  1  0.25000000  0.60116156  0.41533229  1
  B  B12  1  0.01508273  0.53305956  0.83056040  1
  B  B13  1  0.09217161  0.16640440  0.29168507  1
  B  B14  1  0.98491727  0.46694044  0.16943960  1
  B  B15  1  0.75000000  0.15462133  0.64777312  1
  B  B16  1  0.01736072  0.03021151  0.17301339  1
  B  B17  1  0.09098878  0.83345670  0.21295219  1
  B  B18  1  0.75000000  0.34537867  0.14777312  1
  B  B19  1  0.75000000  0.64878625  0.34653935  1
  B  B20  1  0.25000000  0.84537867  0.35222688  1
  B  B21  1  0.40901122  0.83345670  0.21295219  1
  B  B22  1  0.75000000  0.94300307  0.59726526  1
  B  B23  1  0.40782839  0.16640440  0.29168507  1
  B  B24  1  0.25000000  0.05699693  0.40273474  1
  B  B25  1  0.01508273  0.96694044  0.33056040  1
  B  B26  1  0.59217161  0.83359560  0.70831493  1
  B  B27  1  0.09098878  0.66654330  0.71295219  1
  B  B28  1  0.48263928  0.46978849  0.67301339  1
  B  B29  1  0.40901122  0.66654330  0.71295219  1
  B  B30  1  0.59098878  0.33345670  0.28704781  1
  B  B31  1  0.01736072  0.46978849  0.67301339  1
  B  B32  1  0.51736072  0.96978849  0.82698661  1
  B  B33  1  0.90782839  0.66640440  0.20831493  1
  B  B34  1  0.48491727  0.53305956  0.83056040  1
  B  B35  1  0.75000000  0.44562982  0.39928885  1
  B  B36  1  0.51508273  0.03305956  0.66943960  1
  B  B37  1  0.25000000  0.94562982  0.10071115  1
  B  B38  1  0.75000000  0.85121375  0.84653935  1
  B  B39  1  0.59098878  0.16654330  0.78704781  1
  B  B40  1  0.98491727  0.03305956  0.66943960  1
  B  B41  1  0.25000000  0.35121375  0.65346065  1
  B  B42  1  0.98263928  0.96978849  0.82698661  1
  B  B43  1  0.90901122  0.33345670  0.28704781  1
  B  B44  1  0.75000000  0.05437018  0.89928885  1
  B  B45  1  0.98263928  0.53021151  0.32698661  1
  B  B46  1  0.09217161  0.33359560  0.79168507  1
  B  B47  1  0.51508273  0.46694044  0.16943960  1
  B  B48  1  0.40782839  0.33359560  0.79168507  1
  B  B49  1  0.48263928  0.03021151  0.17301339  1
  B  B50  1  0.48491727  0.96694044  0.33056040  1
  B  B51  1  0.90901122  0.16654330  0.78704781  1
  B  B52  1  0.25000000  0.55437018  0.60071115  1
  B  B53  1  0.25000000  0.14878625  0.15346065  1
  B  B54  1  0.51736072  0.53021151  0.32698661  1
  B  B55  1  0.59217161  0.66640440  0.20831493  1
  B  B56  1  0.90782839  0.83359560  0.70831493  1
  B  B57  1  0.75000000  0.55699693  0.09726526  1
  B  B58  1  0.25000000  0.65462133  0.85222688  1
  B  B59  1  0.25000000  0.44300307  0.90273474  1
