# generated using pymatgen
data_CaAlSi
_symmetry_space_group_name_H-M   'P 1'
_cell_length_a   4.20654101
_cell_length_b   4.20654142
_cell_length_c   21.78218038
_cell_angle_alpha   90.00000000
_cell_angle_beta   90.00000000
_cell_angle_gamma   119.99999672
_symmetry_Int_Tables_number   1
_chemical_formula_structural   CaAlSi
_chemical_formula_sum   'Ca5 Al5 Si5'
_cell_volume   333.79689519
_cell_formula_units_Z   5
loop_
 _symmetry_equiv_pos_site_id
 _symmetry_equiv_pos_as_xyz
  1  'x, y, z'
loop_
 _atom_site_type_symbol
 _atom_site_label
 _atom_site_symmetry_multiplicity
 _atom_site_fract_x
 _atom_site_fract_y
 _atom_site_fract_z
 _atom_site_occupancy
  Ca  Ca0  1  0.00000000  0.00000000  0.99954078  1
  Ca  Ca1  1  0.00000000  0.00000000  0.60149341  1
  Ca  Ca2  1  0.00000000  0.00000000  0.39928691  1
  Ca  Ca3  1  0.00000000  0.00000000  0.20154427  1
  Ca  Ca4  1  0.00000000  0.00000000  0.80048327  1
  Al  Al5  1  0.33333300  0.66666700  0.88855260  1
  Al  Al6  1  0.33333300  0.66666700  0.71230076  1
  Al  Al7  1  0.66666700  0.33333300  0.49156024  1
  Al  Al8  1  0.66666700  0.33333300  0.29993352  1
  Al  Al9  1  0.66666700  0.33333300  0.10925749  1
  Si  Si10  1  0.66666700  0.33333300  0.69422391  1
  Si  Si11  1  0.33333300  0.66666700  0.50781119  1
  Si  Si12  1  0.33333300  0.66666700  0.09305122  1
  Si  Si13  1  0.66666700  0.33333300  0.90673685  1
  Si  Si14  1  0.33333300  0.66666700  0.30058357  1
