# generated using pymatgen
data_Sm2MnNiO6
_symmetry_space_group_name_H-M   'P 1'
_cell_length_a   5.36931178
_cell_length_b   5.62917047
_cell_length_c   7.67891066
_cell_angle_alpha   90.00000000
_cell_angle_beta   89.74615160
_cell_angle_gamma   90.00000000
_symmetry_Int_Tables_number   1
_chemical_formula_structural   Sm2MnNiO6
_chemical_formula_sum   'Sm4 Mn2 Ni2 O12'
_cell_volume   232.09104048
_cell_formula_units_Z   2
loop_
 _symmetry_equiv_pos_site_id
 _symmetry_equiv_pos_as_xyz
  1  'x, y, z'
loop_
 _atom_site_type_symbol
 _atom_site_label
 _atom_site_symmetry_multiplicity
 _atom_site_fract_x
 _atom_site_fract_y
 _atom_site_fract_z
 _atom_site_occupancy
  Sm  Sm0  1  0.51630587  0.56409763  0.25088434  1
  Sm  Sm1  1  0.01630587  0.93590237  0.75088434  1
  Sm  Sm2  1  0.48369413  0.43590237  0.74911566  1
  Sm  Sm3  1  0.98369413  0.06409763  0.24911566  1
  Mn  Mn4  1  0.00000000  0.50000000  0.50000000  1
  Mn  Mn5  1  0.50000000  0.00000000  0.00000000  1
  Ni  Ni6  1  0.50000000  0.00000000  0.50000000  1
  Ni  Ni7  1  0.00000000  0.50000000  0.00000000  1
  O  O8  1  0.59495445  0.02802926  0.75743050  1
  O  O9  1  0.20806734  0.19318285  0.95256167  1
  O  O10  1  0.29193266  0.69318285  0.54743833  1
  O  O11  1  0.09495445  0.47197074  0.25743050  1
  O  O12  1  0.40504555  0.97197074  0.24256950  1
  O  O13  1  0.79193266  0.80681715  0.04743833  1
  O  O14  1  0.90504555  0.52802926  0.74256950  1
  O  O15  1  0.80946425  0.78836210  0.44878603  1
  O  O16  1  0.19053575  0.21163790  0.55121397  1
  O  O17  1  0.30946425  0.71163790  0.94878603  1
  O  O18  1  0.70806734  0.30681715  0.45256167  1
  O  O19  1  0.69053575  0.28836210  0.05121397  1
