# generated using pymatgen
data_GdMg2Ni9
_symmetry_space_group_name_H-M   'P 1'
_cell_length_a   8.32421481
_cell_length_b   8.32421453
_cell_length_c   8.32421485
_cell_angle_alpha   33.91320087
_cell_angle_beta   33.91320375
_cell_angle_gamma   33.91320023
_symmetry_Int_Tables_number   1
_chemical_formula_structural   GdMg2Ni9
_chemical_formula_sum   'Gd1 Mg2 Ni9'
_cell_volume   160.02854521
_cell_formula_units_Z   1
loop_
 _symmetry_equiv_pos_site_id
 _symmetry_equiv_pos_as_xyz
  1  'x, y, z'
loop_
 _atom_site_type_symbol
 _atom_site_label
 _atom_site_symmetry_multiplicity
 _atom_site_fract_x
 _atom_site_fract_y
 _atom_site_fract_z
 _atom_site_occupancy
  Gd  Gd0  1  0.00000000  0.00000000  0.00000000  1
  Mg  Mg1  1  0.14385370  0.14385370  0.14385370  1
  Mg  Mg2  1  0.85614630  0.85614630  0.85614630  1
  Ni  Ni3  1  0.41393814  0.91761262  0.41393814  1
  Ni  Ni4  1  0.58606186  0.58606186  0.08238738  1
  Ni  Ni5  1  0.08238738  0.58606186  0.58606186  1
  Ni  Ni6  1  0.41393814  0.41393814  0.91761262  1
  Ni  Ni7  1  0.33346757  0.33346757  0.33346757  1
  Ni  Ni8  1  0.58606186  0.08238738  0.58606186  1
  Ni  Ni9  1  0.50000000  0.50000000  0.50000000  1
  Ni  Ni10  1  0.66653243  0.66653243  0.66653243  1
  Ni  Ni11  1  0.91761262  0.41393814  0.41393814  1
