# generated using pymatgen
data_Np(CuSi)2
_symmetry_space_group_name_H-M   'P 1'
_cell_length_a   3.95040680
_cell_length_b   3.95040686
_cell_length_c   5.74127878
_cell_angle_alpha   110.12293487
_cell_angle_beta   110.12293519
_cell_angle_gamma   90.00000290
_symmetry_Int_Tables_number   1
_chemical_formula_structural   Np(CuSi)2
_chemical_formula_sum   'Np1 Si2 Cu2'
_cell_volume   78.27695929
_cell_formula_units_Z   1
loop_
 _symmetry_equiv_pos_site_id
 _symmetry_equiv_pos_as_xyz
  1  'x, y, z'
loop_
 _atom_site_type_symbol
 _atom_site_label
 _atom_site_symmetry_multiplicity
 _atom_site_fract_x
 _atom_site_fract_y
 _atom_site_fract_z
 _atom_site_occupancy
  Np  Np0  1  0.00000000  0.00000000  0.00000000  1
  Si  Si1  1  0.38300337  0.38300337  0.76600674  1
  Si  Si2  1  0.61699663  0.61699663  0.23399326  1
  Cu  Cu3  1  0.25000000  0.75000000  0.50000000  1
  Cu  Cu4  1  0.75000000  0.25000000  0.50000000  1
