# generated using pymatgen
data_Rb6U(Mo2O9)2
_symmetry_space_group_name_H-M   'P 1'
_cell_length_a   10.61691253
_cell_length_b   10.61609999
_cell_length_c   12.81276475
_cell_angle_alpha   104.72110963
_cell_angle_beta   104.84072690
_cell_angle_gamma   112.59837621
_symmetry_Int_Tables_number   1
_chemical_formula_structural   Rb6U(Mo2O9)2
_chemical_formula_sum   'Rb12 U2 Mo8 O36'
_cell_volume   1183.95460232
_cell_formula_units_Z   2
loop_
 _symmetry_equiv_pos_site_id
 _symmetry_equiv_pos_as_xyz
  1  'x, y, z'
loop_
 _atom_site_type_symbol
 _atom_site_label
 _atom_site_symmetry_multiplicity
 _atom_site_fract_x
 _atom_site_fract_y
 _atom_site_fract_z
 _atom_site_occupancy
  Rb  Rb0  1  0.06968544  0.31968518  0.74998807  1
  Rb  Rb1  1  0.68105716  0.92122512  0.33384604  1
  Rb  Rb2  1  0.51962444  0.46684373  0.33490119  1
  Rb  Rb3  1  0.08738516  0.34721913  0.16615377  1
  Rb  Rb4  1  0.63194733  0.18472409  0.16508906  1
  Rb  Rb5  1  0.36805267  0.81527591  0.83491094  1
  Rb  Rb6  1  0.93031456  0.68031482  0.25001193  1
  Rb  Rb7  1  0.48037556  0.53315627  0.66509881  1
  Rb  Rb8  1  0.91261484  0.65278087  0.83384623  1
  Rb  Rb9  1  0.31894284  0.07877488  0.66615396  1
  Rb  Rb10  1  0.74172883  0.99173576  0.75000283  1
  Rb  Rb11  1  0.25827117  0.00826424  0.24999717  1
  U  U12  1  0.50000000  0.50000000  0.00000000  1
  U  U13  1  0.00000000  0.50000000  0.50000000  1
  Mo  Mo14  1  0.27520542  0.67951998  0.07027170  1
  Mo  Mo15  1  0.79208435  0.87416243  0.04289732  1
  Mo  Mo16  1  0.72479458  0.32048002  0.92972830  1
  Mo  Mo17  1  0.10927223  0.20490396  0.42971770  1
  Mo  Mo18  1  0.66874835  0.25081376  0.54292078  1
  Mo  Mo19  1  0.89072777  0.79509604  0.57028230  1
  Mo  Mo20  1  0.20791565  0.12583757  0.95710268  1
  Mo  Mo21  1  0.33125165  0.74918624  0.45707922  1
  O  O22  1  0.57893801  0.13364811  0.87513775  1
  O  O23  1  0.68882250  0.81579619  0.88992553  1
  O  O24  1  0.42106199  0.86635189  0.12486225  1
  O  O25  1  0.31117750  0.18420381  0.11007447  1
  O  O26  1  0.04061635  0.13545034  0.93876976  1
  O  O27  1  0.83577025  0.46123089  0.37609270  1
  O  O28  1  0.41484187  0.54032411  0.87609619  1
  O  O29  1  0.64711931  0.44951599  0.91396983  1
  O  O30  1  0.43448236  0.70497518  0.37829797  1
  O  O31  1  0.24149217  0.29619297  0.37512903  1
  O  O32  1  0.14369326  0.58315576  0.40341106  1
  O  O33  1  0.17065213  0.62574389  0.91907401  1
  O  O34  1  0.17334310  0.94382408  0.87831319  1
  O  O35  1  0.32025721  0.25972010  0.90342496  1
  O  O36  1  0.95938365  0.86454966  0.06123024  1
  O  O37  1  0.69670097  0.10183937  0.56123314  1
  O  O38  1  0.97487271  0.98997778  0.64738040  1
  O  O39  1  0.35288069  0.55048401  0.08603017  1
  O  O40  1  0.84256342  0.32753269  0.85262580  1
  O  O41  1  0.96448420  0.26682630  0.41397322  1
  O  O42  1  0.67974279  0.74027990  0.09657504  1
  O  O43  1  0.20669893  0.25158846  0.58092275  1
  O  O44  1  0.85630674  0.41684424  0.59658894  1
  O  O45  1  0.82934787  0.37425611  0.08092599  1
  O  O46  1  0.42586851  0.79887466  0.61004306  1
  O  O47  1  0.82665690  0.05617592  0.12168681  1
  O  O48  1  0.79330107  0.74841154  0.41907725  1
  O  O49  1  0.15743658  0.67246731  0.14737420  1
  O  O50  1  0.56551764  0.29502482  0.62170203  1
  O  O51  1  0.02512729  0.01002222  0.35261960  1
  O  O52  1  0.30329903  0.89816063  0.43876686  1
  O  O53  1  0.75850783  0.70380703  0.62487097  1
  O  O54  1  0.16422975  0.53876911  0.62390730  1
  O  O55  1  0.58515813  0.45967589  0.12390381  1
  O  O56  1  0.03551580  0.73317370  0.58602678  1
  O  O57  1  0.57413149  0.20112534  0.38995694  1
