# generated using pymatgen
data_Tl4Mo5O17
_symmetry_space_group_name_H-M   'P 1'
_cell_length_a   7.96938951
_cell_length_b   11.04753111
_cell_length_c   11.18268026
_cell_angle_alpha   73.98282061
_cell_angle_beta   80.63286095
_cell_angle_gamma   80.40709631
_symmetry_Int_Tables_number   1
_chemical_formula_structural   Tl4Mo5O17
_chemical_formula_sum   'Tl8 Mo10 O34'
_cell_volume   925.98211446
_cell_formula_units_Z   2
loop_
 _symmetry_equiv_pos_site_id
 _symmetry_equiv_pos_as_xyz
  1  'x, y, z'
loop_
 _atom_site_type_symbol
 _atom_site_label
 _atom_site_symmetry_multiplicity
 _atom_site_fract_x
 _atom_site_fract_y
 _atom_site_fract_z
 _atom_site_occupancy
  Tl  Tl0  1  0.10875860  0.10096654  0.19709631  1
  Tl  Tl1  1  0.25765739  0.57267941  0.90505612  1
  Tl  Tl2  1  0.57090542  0.27040066  0.78698457  1
  Tl  Tl3  1  0.62277441  0.17612958  0.46996445  1
  Tl  Tl4  1  0.42909458  0.72959934  0.21301543  1
  Tl  Tl5  1  0.37722559  0.82387042  0.53003555  1
  Tl  Tl6  1  0.89124140  0.89903346  0.80290369  1
  Tl  Tl7  1  0.74234261  0.42732059  0.09494388  1
  Mo  Mo8  1  0.39259913  0.93787667  0.82926434  1
  Mo  Mo9  1  0.18426847  0.48011791  0.57405113  1
  Mo  Mo10  1  0.92244778  0.76065905  0.18323116  1
  Mo  Mo11  1  0.60740087  0.06212333  0.17073566  1
  Mo  Mo12  1  0.12964589  0.18751306  0.52445232  1
  Mo  Mo13  1  0.87035411  0.81248694  0.47554768  1
  Mo  Mo14  1  0.07755222  0.23934095  0.81676884  1
  Mo  Mo15  1  0.80077449  0.56902579  0.72338556  1
  Mo  Mo16  1  0.81573153  0.51988209  0.42594887  1
  Mo  Mo17  1  0.19922551  0.43097421  0.27661444  1
  O  O18  1  0.02213924  0.39299266  0.45775274  1
  O  O19  1  0.67733521  0.18366994  0.22137466  1
  O  O20  1  0.00694103  0.13983920  0.43232706  1
  O  O21  1  0.97621969  0.41589757  0.72276584  1
  O  O22  1  0.20907303  0.30253274  0.89004293  1
  O  O23  1  0.62937529  0.50195711  0.82862863  1
  O  O24  1  0.78929907  0.92980529  0.15465723  1
  O  O25  1  0.89572649  0.21195420  0.92550818  1
  O  O26  1  0.46456182  0.86597869  0.97577067  1
  O  O27  1  0.09454746  0.37012901  0.18310470  1
  O  O28  1  0.53543818  0.13402131  0.02422933  1
  O  O29  1  0.79092697  0.69746726  0.10995707  1
  O  O30  1  0.21070093  0.07019471  0.84534277  1
  O  O31  1  0.71121298  0.45356378  0.33876129  1
  O  O32  1  0.32266479  0.81633006  0.77862534  1
  O  O33  1  0.57652947  0.99540166  0.73035216  1
  O  O34  1  0.90545254  0.62987099  0.81689530  1
  O  O35  1  0.37062471  0.49804289  0.17137137  1
  O  O36  1  0.74859198  0.69723965  0.37035238  1
  O  O37  1  0.28838078  0.05768901  0.56988945  1
  O  O38  1  0.98376216  0.18081330  0.67391242  1
  O  O39  1  0.70287575  0.72311013  0.62190415  1
  O  O40  1  0.97786076  0.60700734  0.54224726  1
  O  O41  1  0.25140802  0.30276035  0.62964762  1
  O  O42  1  0.28878702  0.54643622  0.66123871  1
  O  O43  1  0.71161922  0.94231099  0.43011055  1
  O  O44  1  0.29712425  0.27688987  0.37809585  1
  O  O45  1  0.10427351  0.78804580  0.07449182  1
  O  O46  1  0.42347053  0.00459834  0.26964784  1
  O  O47  1  0.99305897  0.86016080  0.56767294  1
  O  O48  1  0.01623784  0.81918670  0.32608758  1
  O  O49  1  0.70262975  0.48244509  0.58033934  1
  O  O50  1  0.29737025  0.51755491  0.41966066  1
  O  O51  1  0.02378031  0.58410243  0.27723416  1
