# generated using pymatgen
data_Ni3B7BrO13
_symmetry_space_group_name_H-M   'P 1'
_cell_length_a   8.59568880
_cell_length_b   8.61207933
_cell_length_c   12.17464674
_cell_angle_alpha   90.00000000
_cell_angle_beta   90.00000000
_cell_angle_gamma   90.00000000
_symmetry_Int_Tables_number   1
_chemical_formula_structural   Ni3B7BrO13
_chemical_formula_sum   'Ni12 B28 Br4 O52'
_cell_volume   901.24957733
_cell_formula_units_Z   4
loop_
 _symmetry_equiv_pos_site_id
 _symmetry_equiv_pos_as_xyz
  1  'x, y, z'
loop_
 _atom_site_type_symbol
 _atom_site_label
 _atom_site_symmetry_multiplicity
 _atom_site_fract_x
 _atom_site_fract_y
 _atom_site_fract_z
 _atom_site_occupancy
  Ni  Ni0  1  0.97229894  0.01313200  0.49345467  1
  Ni  Ni1  1  0.25048692  0.74228124  0.76820509  1
  Ni  Ni2  1  0.52726268  0.01298448  0.49537372  1
  Ni  Ni3  1  0.02770106  0.98686800  0.99345467  1
  Ni  Ni4  1  0.02770106  0.51313200  0.49345467  1
  Ni  Ni5  1  0.74951308  0.25771876  0.26820509  1
  Ni  Ni6  1  0.74951308  0.24228124  0.76820509  1
  Ni  Ni7  1  0.47273732  0.98701552  0.99537372  1
  Ni  Ni8  1  0.47273732  0.51298448  0.49537372  1
  Ni  Ni9  1  0.52726268  0.48701552  0.99537372  1
  Ni  Ni10  1  0.97229894  0.48686800  0.99345467  1
  Ni  Ni11  1  0.25048692  0.75771876  0.26820509  1
  B  B12  1  0.75010276  0.95393241  0.14610366  1
  B  B13  1  0.50173443  0.49907445  0.74675940  1
  B  B14  1  0.50173443  0.00092555  0.24675940  1
  B  B15  1  0.59681118  0.75347849  0.82697677  1
  B  B16  1  0.99680929  0.00290359  0.24639572  1
  B  B17  1  0.09601645  0.24804066  0.32604956  1
  B  B18  1  0.24989724  0.04606759  0.64610366  1
  B  B19  1  0.99680929  0.49709641  0.74639572  1
  B  B20  1  0.49826557  0.50092555  0.24675940  1
  B  B21  1  0.75403647  0.74417654  0.49884272  1
  B  B22  1  0.24925694  0.40583160  0.67345834  1
  B  B23  1  0.40318882  0.24652151  0.32697677  1
  B  B24  1  0.24989724  0.45393241  0.14610366  1
  B  B25  1  0.40318882  0.25347849  0.82697677  1
  B  B26  1  0.90398355  0.74804066  0.32604956  1
  B  B27  1  0.90398355  0.75195934  0.82604956  1
  B  B28  1  0.24925694  0.09416840  0.17345834  1
  B  B29  1  0.09601645  0.25195934  0.82604956  1
  B  B30  1  0.75403647  0.75582346  0.99884272  1
  B  B31  1  0.00319071  0.99709641  0.74639572  1
  B  B32  1  0.75074306  0.90583160  0.67345834  1
  B  B33  1  0.75074306  0.59416840  0.17345834  1
  B  B34  1  0.59681118  0.74652151  0.32697677  1
  B  B35  1  0.00319071  0.50290359  0.24639572  1
  B  B36  1  0.24596353  0.25582346  0.99884272  1
  B  B37  1  0.24596353  0.24417654  0.49884272  1
  B  B38  1  0.75010276  0.54606759  0.64610366  1
  B  B39  1  0.49826557  0.99907445  0.74675940  1
  Br  Br40  1  0.25086134  0.77950104  0.98285909  1
  Br  Br41  1  0.74913866  0.27950104  0.98285909  1
  Br  Br42  1  0.74913866  0.22049896  0.48285909  1
  Br  Br43  1  0.25086134  0.72049896  0.48285909  1
  O  O44  1  0.02730459  0.66941360  0.26665836  1
  O  O45  1  0.82731088  0.85850707  0.57188737  1
  O  O46  1  0.82731088  0.64149293  0.07188737  1
  O  O47  1  0.91051053  0.96290610  0.14254802  1
  O  O48  1  0.17268912  0.35850707  0.57188737  1
  O  O49  1  0.08948947  0.46290610  0.14254802  1
  O  O50  1  0.66894355  0.45894118  0.72233287  1
  O  O51  1  0.94076331  0.58754307  0.84110042  1
  O  O52  1  0.32922731  0.11831687  0.56157323  1
  O  O53  1  0.66894355  0.04105882  0.22233287  1
  O  O54  1  0.67077269  0.61831687  0.56157323  1
  O  O55  1  0.74973346  0.73269817  0.25690371  1
  O  O56  1  0.59113783  0.54929337  0.15145557  1
  O  O57  1  0.83795423  0.03214981  0.72608105  1
  O  O58  1  0.36312269  0.17730575  0.93012521  1
  O  O59  1  0.02730459  0.83058640  0.76665836  1
  O  O60  1  0.63687731  0.67730575  0.93012521  1
  O  O61  1  0.54290258  0.58745743  0.34555726  1
  O  O62  1  0.47989756  0.83429812  0.26636838  1
  O  O63  1  0.52010244  0.16570188  0.76636838  1
  O  O64  1  0.33105645  0.54105882  0.22233287  1
  O  O65  1  0.16204577  0.96785019  0.22608105  1
  O  O66  1  0.97269541  0.16941360  0.26665836  1
  O  O67  1  0.40886217  0.04929337  0.15145557  1
  O  O68  1  0.45709742  0.08745743  0.34555726  1
  O  O69  1  0.25026654  0.26730183  0.75690371  1
  O  O70  1  0.67077269  0.88168313  0.06157323  1
  O  O71  1  0.59113783  0.95070663  0.65145557  1
  O  O72  1  0.47989756  0.66570188  0.76636838  1
  O  O73  1  0.36312269  0.32269425  0.43012521  1
  O  O74  1  0.05923669  0.08754307  0.84110042  1
  O  O75  1  0.05923669  0.41245693  0.34110042  1
  O  O76  1  0.83795423  0.46785019  0.22608105  1
  O  O77  1  0.08948947  0.03709390  0.64254802  1
  O  O78  1  0.87516503  0.82811210  0.93116980  1
  O  O79  1  0.63687731  0.82269425  0.43012521  1
  O  O80  1  0.40886217  0.45070663  0.65145557  1
  O  O81  1  0.97269541  0.33058640  0.76665836  1
  O  O82  1  0.54290258  0.91254257  0.84555726  1
  O  O83  1  0.45709742  0.41254257  0.84555726  1
  O  O84  1  0.12483497  0.17188790  0.43116980  1
  O  O85  1  0.87516503  0.67188790  0.43116980  1
  O  O86  1  0.17268912  0.14149293  0.07188737  1
  O  O87  1  0.94076331  0.91245693  0.34110042  1
  O  O88  1  0.33105645  0.95894118  0.72233287  1
  O  O89  1  0.12483497  0.32811210  0.93116980  1
  O  O90  1  0.91051053  0.53709390  0.64254802  1
  O  O91  1  0.25026654  0.23269817  0.25690371  1
  O  O92  1  0.74973346  0.76730183  0.75690371  1
  O  O93  1  0.32922731  0.38168313  0.06157323  1
  O  O94  1  0.52010244  0.33429812  0.26636838  1
  O  O95  1  0.16204577  0.53214981  0.72608105  1
