# generated using pymatgen
data_CaU(MoO4)4
_symmetry_space_group_name_H-M   'P 1'
_cell_length_a   6.74832310
_cell_length_b   8.36170084
_cell_length_c   11.64595428
_cell_angle_alpha   90.39032303
_cell_angle_beta   90.00305772
_cell_angle_gamma   89.96573628
_symmetry_Int_Tables_number   1
_chemical_formula_structural   CaU(MoO4)4
_chemical_formula_sum   'Ca2 U2 Mo8 O32'
_cell_volume   657.13623923
_cell_formula_units_Z   2
loop_
 _symmetry_equiv_pos_site_id
 _symmetry_equiv_pos_as_xyz
  1  'x, y, z'
loop_
 _atom_site_type_symbol
 _atom_site_label
 _atom_site_symmetry_multiplicity
 _atom_site_fract_x
 _atom_site_fract_y
 _atom_site_fract_z
 _atom_site_occupancy
  Ca  Ca0  1  0.69982081  0.24994452  0.25004662  1
  Ca  Ca1  1  0.30017919  0.75005548  0.74995338  1
  U  U2  1  0.30126476  0.25005566  0.75015943  1
  U  U3  1  0.69873524  0.74994434  0.24984057  1
  Mo  Mo4  1  0.16726021  0.79416454  0.09313087  1
  Mo  Mo5  1  0.83273979  0.20583546  0.90686913  1
  Mo  Mo6  1  0.16938118  0.29444761  0.09600807  1
  Mo  Mo7  1  0.16738327  0.70563156  0.40676369  1
  Mo  Mo8  1  0.83261673  0.29436844  0.59323631  1
  Mo  Mo9  1  0.83061882  0.70555239  0.90399193  1
  Mo  Mo10  1  0.16939245  0.20534040  0.40418480  1
  Mo  Mo11  1  0.83060755  0.79465960  0.59581520  1
  O  O12  1  0.84944834  0.74728197  0.43210949  1
  O  O13  1  0.84707448  0.00316852  0.59659981  1
  O  O14  1  0.84949990  0.75266138  0.06775374  1
  O  O15  1  0.58000494  0.74043029  0.87566350  1
  O  O16  1  0.41999506  0.25956971  0.12433650  1
  O  O17  1  0.85167459  0.24843651  0.06288444  1
  O  O18  1  0.15623857  0.00262566  0.09752956  1
  O  O19  1  0.15050010  0.24733862  0.93224626  1
  O  O20  1  0.06582834  0.24994227  0.25007419  1
  O  O21  1  0.15292552  0.99683148  0.40340019  1
  O  O22  1  0.57991234  0.76054456  0.62420409  1
  O  O23  1  0.05751977  0.74991764  0.24995062  1
  O  O24  1  0.84655539  0.49702464  0.90321214  1
  O  O25  1  0.57773187  0.25673824  0.62925623  1
  O  O26  1  0.94248023  0.25008236  0.75004938  1
  O  O27  1  0.84376143  0.99737434  0.90247044  1
  O  O28  1  0.93417166  0.75005773  0.74992581  1
  O  O29  1  0.14832541  0.75156349  0.93711556  1
  O  O30  1  0.30105241  0.46926148  0.75278825  1
  O  O31  1  0.69904370  0.96912416  0.25224800  1
  O  O32  1  0.85166671  0.25192616  0.43720428  1
  O  O33  1  0.14833329  0.74807384  0.56279572  1
  O  O34  1  0.15344461  0.50297536  0.09678786  1
  O  O35  1  0.42226813  0.74326176  0.37074377  1
  O  O36  1  0.15055166  0.25271803  0.56789051  1
  O  O37  1  0.30095630  0.03087584  0.74775200  1
  O  O38  1  0.15675858  0.49717104  0.40234476  1
  O  O39  1  0.42224974  0.75665377  0.12913601  1
  O  O40  1  0.57775026  0.24334623  0.87086399  1
  O  O41  1  0.84324142  0.50282896  0.59765524  1
  O  O42  1  0.69894759  0.53073852  0.24721175  1
  O  O43  1  0.42008766  0.23945544  0.37579591  1
