# generated using pymatgen
data_KCr2PbF9
_symmetry_space_group_name_H-M   'P 1'
_cell_length_a   5.53211416
_cell_length_b   10.01560836
_cell_length_c   14.23263849
_cell_angle_alpha   90.00000000
_cell_angle_beta   90.00000000
_cell_angle_gamma   90.00000000
_symmetry_Int_Tables_number   1
_chemical_formula_structural   KCr2PbF9
_chemical_formula_sum   'K4 Cr8 Pb4 F36'
_cell_volume   788.59475815
_cell_formula_units_Z   4
loop_
 _symmetry_equiv_pos_site_id
 _symmetry_equiv_pos_as_xyz
  1  'x, y, z'
loop_
 _atom_site_type_symbol
 _atom_site_label
 _atom_site_symmetry_multiplicity
 _atom_site_fract_x
 _atom_site_fract_y
 _atom_site_fract_z
 _atom_site_occupancy
  K  K0  1  0.25000000  0.23009888  0.79950621  1
  K  K1  1  0.25000000  0.73009888  0.70049379  1
  K  K2  1  0.75000000  0.26990112  0.29950621  1
  K  K3  1  0.75000000  0.76990112  0.20049379  1
  Cr  Cr4  1  0.25000000  0.56645147  0.34470404  1
  Cr  Cr5  1  0.25000000  0.06645147  0.15529596  1
  Cr  Cr6  1  0.75000000  0.73118727  0.49232245  1
  Cr  Cr7  1  0.75000000  0.23118727  0.00767755  1
  Cr  Cr8  1  0.25000000  0.26881273  0.50767755  1
  Cr  Cr9  1  0.75000000  0.43354853  0.65529596  1
  Cr  Cr10  1  0.25000000  0.76881273  0.99232245  1
  Cr  Cr11  1  0.75000000  0.93354853  0.84470404  1
  Pb  Pb12  1  0.25000000  0.94769721  0.38868055  1
  Pb  Pb13  1  0.25000000  0.44769721  0.11131945  1
  Pb  Pb14  1  0.75000000  0.05230279  0.61131945  1
  Pb  Pb15  1  0.75000000  0.55230279  0.88868055  1
  F  F16  1  0.49842902  0.11711364  0.06296223  1
  F  F17  1  0.25000000  0.88118833  0.10690465  1
  F  F18  1  0.00157098  0.61711364  0.43703777  1
  F  F19  1  0.01381375  0.01573550  0.24828867  1
  F  F20  1  0.51381375  0.48426450  0.74828867  1
  F  F21  1  0.49098332  0.15404962  0.45059219  1
  F  F22  1  0.49842902  0.61711364  0.43703777  1
  F  F23  1  0.25000000  0.65186919  0.88612979  1
  F  F24  1  0.99842902  0.88288636  0.93703777  1
  F  F25  1  0.75000000  0.75552301  0.79394234  1
  F  F26  1  0.50901668  0.34595038  0.95059219  1
  F  F27  1  0.25000000  0.74447699  0.29394234  1
  F  F28  1  0.75000000  0.25552301  0.70605766  1
  F  F29  1  0.00901668  0.15404962  0.45059219  1
  F  F30  1  0.99098332  0.84595038  0.54940781  1
  F  F31  1  0.50157098  0.38288636  0.56296223  1
  F  F32  1  0.99098332  0.34595038  0.95059219  1
  F  F33  1  0.99842902  0.38288636  0.56296223  1
  F  F34  1  0.98618625  0.98426450  0.75171133  1
  F  F35  1  0.75000000  0.84813081  0.38612979  1
  F  F36  1  0.75000000  0.61881167  0.60690465  1
  F  F37  1  0.98618625  0.48426450  0.74828867  1
  F  F38  1  0.49098332  0.65404962  0.04940781  1
  F  F39  1  0.48618625  0.01573550  0.24828867  1
  F  F40  1  0.25000000  0.38118833  0.39309535  1
  F  F41  1  0.50901668  0.84595038  0.54940781  1
  F  F42  1  0.50157098  0.88288636  0.93703777  1
  F  F43  1  0.00901668  0.65404962  0.04940781  1
  F  F44  1  0.25000000  0.15186919  0.61387021  1
  F  F45  1  0.75000000  0.34813081  0.11387021  1
  F  F46  1  0.25000000  0.24447699  0.20605766  1
  F  F47  1  0.75000000  0.11881167  0.89309535  1
  F  F48  1  0.01381375  0.51573550  0.25171133  1
  F  F49  1  0.00157098  0.11711364  0.06296223  1
  F  F50  1  0.48618625  0.51573550  0.25171133  1
  F  F51  1  0.51381375  0.98426450  0.75171133  1
