# generated using pymatgen
data_Tb4MgIr
_symmetry_space_group_name_H-M   'P 1'
_cell_length_a   9.75236628
_cell_length_b   9.75236625
_cell_length_c   9.75236628
_cell_angle_alpha   59.99999988
_cell_angle_beta   60.00000001
_cell_angle_gamma   59.99999788
_symmetry_Int_Tables_number   1
_chemical_formula_structural   Tb4MgIr
_chemical_formula_sum   'Tb16 Mg4 Ir4'
_cell_volume   655.86583129
_cell_formula_units_Z   4
loop_
 _symmetry_equiv_pos_site_id
 _symmetry_equiv_pos_as_xyz
  1  'x, y, z'
loop_
 _atom_site_type_symbol
 _atom_site_label
 _atom_site_symmetry_multiplicity
 _atom_site_fract_x
 _atom_site_fract_y
 _atom_site_fract_z
 _atom_site_occupancy
  Tb  Tb0  1  0.81174025  0.81174025  0.18825975  1
  Tb  Tb1  1  0.18825975  0.18825975  0.81174025  1
  Tb  Tb2  1  0.43695661  0.06304339  0.06304339  1
  Tb  Tb3  1  0.65361179  0.65361179  0.03916463  1
  Tb  Tb4  1  0.65361179  0.65361179  0.65361179  1
  Tb  Tb5  1  0.06304339  0.43695661  0.06304339  1
  Tb  Tb6  1  0.81174025  0.18825975  0.18825975  1
  Tb  Tb7  1  0.81174025  0.18825975  0.81174025  1
  Tb  Tb8  1  0.18825975  0.81174025  0.81174025  1
  Tb  Tb9  1  0.06304339  0.43695661  0.43695661  1
  Tb  Tb10  1  0.43695661  0.06304339  0.43695661  1
  Tb  Tb11  1  0.06304339  0.06304339  0.43695661  1
  Tb  Tb12  1  0.43695661  0.43695661  0.06304339  1
  Tb  Tb13  1  0.18825975  0.81174025  0.18825975  1
  Tb  Tb14  1  0.65361179  0.03916463  0.65361179  1
  Tb  Tb15  1  0.03916463  0.65361179  0.65361179  1
  Mg  Mg16  1  0.42057878  0.73826366  0.42057878  1
  Mg  Mg17  1  0.73826366  0.42057878  0.42057878  1
  Mg  Mg18  1  0.42057878  0.42057878  0.42057878  1
  Mg  Mg19  1  0.42057878  0.42057878  0.73826366  1
  Ir  Ir20  1  0.85872068  0.42383796  0.85872068  1
  Ir  Ir21  1  0.42383796  0.85872068  0.85872068  1
  Ir  Ir22  1  0.85872068  0.85872068  0.85872068  1
  Ir  Ir23  1  0.85872068  0.85872068  0.42383796  1
