# generated using pymatgen
data_BaMo2Se2O11
_symmetry_space_group_name_H-M   'P 1'
_cell_length_a   7.99006558
_cell_length_b   8.13764667
_cell_length_c   9.02146522
_cell_angle_alpha   116.80887690
_cell_angle_beta   90.00000000
_cell_angle_gamma   90.00000000
_symmetry_Int_Tables_number   1
_chemical_formula_structural   BaMo2Se2O11
_chemical_formula_sum   'Ba2 Mo4 Se4 O22'
_cell_volume   523.53080365
_cell_formula_units_Z   2
loop_
 _symmetry_equiv_pos_site_id
 _symmetry_equiv_pos_as_xyz
  1  'x, y, z'
loop_
 _atom_site_type_symbol
 _atom_site_label
 _atom_site_symmetry_multiplicity
 _atom_site_fract_x
 _atom_site_fract_y
 _atom_site_fract_z
 _atom_site_occupancy
  Ba  Ba0  1  0.66790751  0.23146036  1.00000000  1
  Ba  Ba1  1  0.16790751  0.76853964  0.00000000  1
  Mo  Mo2  1  0.65974541  0.84259801  0.21705948  1
  Mo  Mo3  1  0.15974541  0.15740199  0.78294052  1
  Mo  Mo4  1  0.65974541  0.62553853  0.78294052  1
  Mo  Mo5  1  0.15974541  0.37446147  0.21705948  1
  Se  Se6  1  0.81023098  0.29230260  0.41563645  1
  Se  Se7  1  0.31023098  0.12333385  0.41563645  1
  Se  Se8  1  0.81023098  0.87666615  0.58436355  1
  Se  Se9  1  0.31023098  0.70769740  0.58436355  1
  O  O10  1  0.12913189  0.56592220  0.18130164  1
  O  O11  1  0.58257254  0.81448091  1.00000000  1
  O  O12  1  0.39633107  0.91356950  0.28050076  1
  O  O13  1  0.65977728  0.86486251  0.71633195  1
  O  O14  1  0.39633107  0.63306874  0.71949924  1
  O  O15  1  0.87380043  0.84510862  0.17795290  1
  O  O16  1  0.37380043  0.33284428  0.17795290  1
  O  O17  1  0.89633107  0.36693126  0.28050076  1
  O  O18  1  0.18194292  0.04459804  0.52944876  1
  O  O19  1  0.89633107  0.08643050  0.71949924  1
  O  O20  1  0.62913189  0.43407780  0.81869836  1
  O  O21  1  0.68194292  0.48485073  0.52944876  1
  O  O22  1  0.65977728  0.14853056  0.28366805  1
  O  O23  1  0.62913189  0.61537944  0.18130164  1
  O  O24  1  0.37380043  0.15489138  0.82204710  1
  O  O25  1  0.08257254  0.18551909  0.00000000  1
  O  O26  1  0.15977728  0.13513749  0.28366805  1
  O  O27  1  0.15977728  0.85146944  0.71633195  1
  O  O28  1  0.68194292  0.95540196  0.47055124  1
  O  O29  1  0.87380043  0.66715572  0.82204710  1
  O  O30  1  0.18194292  0.51514927  0.47055124  1
  O  O31  1  0.12913189  0.38462056  0.81869836  1
