# generated using pymatgen
data_Nd4MgIr
_symmetry_space_group_name_H-M   'P 1'
_cell_length_a   10.03609371
_cell_length_b   10.03609335
_cell_length_c   10.03609399
_cell_angle_alpha   60.00000124
_cell_angle_beta   60.00000247
_cell_angle_gamma   60.00000044
_symmetry_Int_Tables_number   1
_chemical_formula_structural   Nd4MgIr
_chemical_formula_sum   'Nd16 Mg4 Ir4'
_cell_volume   714.79109907
_cell_formula_units_Z   4
loop_
 _symmetry_equiv_pos_site_id
 _symmetry_equiv_pos_as_xyz
  1  'x, y, z'
loop_
 _atom_site_type_symbol
 _atom_site_label
 _atom_site_symmetry_multiplicity
 _atom_site_fract_x
 _atom_site_fract_y
 _atom_site_fract_z
 _atom_site_occupancy
  Nd  Nd0  1  0.34624512  0.34624512  0.34624512  1
  Nd  Nd1  1  0.18846110  0.81153890  0.18846110  1
  Nd  Nd2  1  0.81153890  0.81153890  0.18846110  1
  Nd  Nd3  1  0.93793334  0.93793334  0.56206666  1
  Nd  Nd4  1  0.93793334  0.56206666  0.56206666  1
  Nd  Nd5  1  0.56206666  0.93793334  0.56206666  1
  Nd  Nd6  1  0.18846110  0.18846110  0.81153890  1
  Nd  Nd7  1  0.56206666  0.56206666  0.93793334  1
  Nd  Nd8  1  0.81153890  0.18846110  0.81153890  1
  Nd  Nd9  1  0.56206666  0.93793334  0.93793334  1
  Nd  Nd10  1  0.18846110  0.81153890  0.81153890  1
  Nd  Nd11  1  0.81153890  0.18846110  0.18846110  1
  Nd  Nd12  1  0.96126464  0.34624512  0.34624512  1
  Nd  Nd13  1  0.34624512  0.96126464  0.34624512  1
  Nd  Nd14  1  0.93793334  0.56206666  0.93793334  1
  Nd  Nd15  1  0.34624512  0.34624512  0.96126464  1
  Mg  Mg16  1  0.57879249  0.57879249  0.26362253  1
  Mg  Mg17  1  0.26362253  0.57879249  0.57879249  1
  Mg  Mg18  1  0.57879249  0.57879249  0.57879249  1
  Mg  Mg19  1  0.57879249  0.26362253  0.57879249  1
  Ir  Ir20  1  0.14144085  0.57567745  0.14144085  1
  Ir  Ir21  1  0.14144085  0.14144085  0.14144085  1
  Ir  Ir22  1  0.14144085  0.14144085  0.57567745  1
  Ir  Ir23  1  0.57567745  0.14144085  0.14144085  1
