# generated using pymatgen
data_Ag(BCl)6
_symmetry_space_group_name_H-M   'P 1'
_cell_length_a   12.60898275
_cell_length_b   12.60898275
_cell_length_c   12.60898275
_cell_angle_alpha   90.00000000
_cell_angle_beta   90.00000000
_cell_angle_gamma   90.00000000
_symmetry_Int_Tables_number   1
_chemical_formula_structural   Ag(BCl)6
_chemical_formula_sum   'Ag8 B48 Cl48'
_cell_volume   2004.65735497
_cell_formula_units_Z   8
loop_
 _symmetry_equiv_pos_site_id
 _symmetry_equiv_pos_as_xyz
  1  'x, y, z'
loop_
 _atom_site_type_symbol
 _atom_site_label
 _atom_site_symmetry_multiplicity
 _atom_site_fract_x
 _atom_site_fract_y
 _atom_site_fract_z
 _atom_site_occupancy
  Ag  Ag0  1  0.63289833  0.63289833  0.63289833  1
  Ag  Ag1  1  0.63289833  0.86710167  0.13289833  1
  Ag  Ag2  1  0.13289833  0.86710167  0.36710167  1
  Ag  Ag3  1  0.86710167  0.36710167  0.13289833  1
  Ag  Ag4  1  0.36710167  0.36710167  0.36710167  1
  Ag  Ag5  1  0.13289833  0.63289833  0.86710167  1
  Ag  Ag6  1  0.86710167  0.13289833  0.63289833  1
  Ag  Ag7  1  0.36710167  0.13289833  0.86710167  1
  B  B8  1  0.90691478  0.07188017  0.06525906  1
  B  B9  1  0.12948304  0.47285198  0.53041967  1
  B  B10  1  0.42811983  0.56525906  0.90691478  1
  B  B11  1  0.07188017  0.06525906  0.90691478  1
  B  B12  1  0.40691478  0.07188017  0.43474094  1
  B  B13  1  0.59308522  0.92811983  0.56525906  1
  B  B14  1  0.02714802  0.03041967  0.12948304  1
  B  B15  1  0.03041967  0.12948304  0.02714802  1
  B  B16  1  0.57188017  0.06525906  0.59308522  1
  B  B17  1  0.47285198  0.53041967  0.12948304  1
  B  B18  1  0.92811983  0.56525906  0.59308522  1
  B  B19  1  0.42811983  0.93474094  0.40691478  1
  B  B20  1  0.46958033  0.62948304  0.02714802  1
  B  B21  1  0.46958033  0.87051696  0.52714802  1
  B  B22  1  0.93474094  0.40691478  0.42811983  1
  B  B23  1  0.09308522  0.92811983  0.93474094  1
  B  B24  1  0.06525906  0.59308522  0.57188017  1
  B  B25  1  0.07188017  0.43474094  0.40691478  1
  B  B26  1  0.09308522  0.57188017  0.43474094  1
  B  B27  1  0.62948304  0.02714802  0.46958033  1
  B  B28  1  0.53041967  0.37051696  0.97285198  1
  B  B29  1  0.06525906  0.90691478  0.07188017  1
  B  B30  1  0.52714802  0.03041967  0.37051696  1
  B  B31  1  0.90691478  0.42811983  0.56525906  1
  B  B32  1  0.03041967  0.37051696  0.52714802  1
  B  B33  1  0.92811983  0.93474094  0.09308522  1
  B  B34  1  0.62948304  0.47285198  0.96958033  1
  B  B35  1  0.97285198  0.53041967  0.37051696  1
  B  B36  1  0.87051696  0.52714802  0.46958033  1
  B  B37  1  0.40691478  0.42811983  0.93474094  1
  B  B38  1  0.02714802  0.46958033  0.62948304  1
  B  B39  1  0.59308522  0.57188017  0.06525906  1
  B  B40  1  0.56525906  0.59308522  0.92811983  1
  B  B41  1  0.43474094  0.40691478  0.07188017  1
  B  B42  1  0.56525906  0.90691478  0.42811983  1
  B  B43  1  0.97285198  0.96958033  0.87051696  1
  B  B44  1  0.37051696  0.52714802  0.03041967  1
  B  B45  1  0.96958033  0.62948304  0.47285198  1
  B  B46  1  0.52714802  0.46958033  0.87051696  1
  B  B47  1  0.43474094  0.09308522  0.57188017  1
  B  B48  1  0.96958033  0.87051696  0.97285198  1
  B  B49  1  0.12948304  0.02714802  0.03041967  1
  B  B50  1  0.87051696  0.97285198  0.96958033  1
  B  B51  1  0.57188017  0.43474094  0.09308522  1
  B  B52  1  0.93474094  0.09308522  0.92811983  1
  B  B53  1  0.37051696  0.97285198  0.53041967  1
  B  B54  1  0.53041967  0.12948304  0.47285198  1
  B  B55  1  0.47285198  0.96958033  0.62948304  1
  Cl  Cl56  1  0.80657106  0.14756222  0.13128083  1
  Cl  Cl57  1  0.73259455  0.55333544  0.44304628  1
  Cl  Cl58  1  0.64756222  0.36871917  0.19342894  1
  Cl  Cl59  1  0.05695372  0.23259455  0.55333544  1
  Cl  Cl60  1  0.94666456  0.55695372  0.23259455  1
  Cl  Cl61  1  0.55333544  0.44304628  0.73259455  1
  Cl  Cl62  1  0.55695372  0.23259455  0.94666456  1
  Cl  Cl63  1  0.05695372  0.26740545  0.05333544  1
  Cl  Cl64  1  0.44304628  0.73259455  0.55333544  1
  Cl  Cl65  1  0.94304628  0.76740545  0.44666456  1
  Cl  Cl66  1  0.19342894  0.64756222  0.36871917  1
  Cl  Cl67  1  0.85243778  0.86871917  0.19342894  1
  Cl  Cl68  1  0.44666456  0.55695372  0.26740545  1
  Cl  Cl69  1  0.05333544  0.44304628  0.76740545  1
  Cl  Cl70  1  0.44666456  0.94304628  0.76740545  1
  Cl  Cl71  1  0.94666456  0.94304628  0.73259455  1
  Cl  Cl72  1  0.36871917  0.30657106  0.14756222  1
  Cl  Cl73  1  0.13128083  0.69342894  0.64756222  1
  Cl  Cl74  1  0.13128083  0.80657106  0.14756222  1
  Cl  Cl75  1  0.63128083  0.69342894  0.85243778  1
  Cl  Cl76  1  0.35243778  0.63128083  0.80657106  1
  Cl  Cl77  1  0.30657106  0.14756222  0.36871917  1
  Cl  Cl78  1  0.23259455  0.94666456  0.55695372  1
  Cl  Cl79  1  0.69342894  0.64756222  0.13128083  1
  Cl  Cl80  1  0.14756222  0.36871917  0.30657106  1
  Cl  Cl81  1  0.35243778  0.86871917  0.30657106  1
  Cl  Cl82  1  0.44304628  0.76740545  0.05333544  1
  Cl  Cl83  1  0.85243778  0.63128083  0.69342894  1
  Cl  Cl84  1  0.55333544  0.05695372  0.23259455  1
  Cl  Cl85  1  0.64756222  0.13128083  0.69342894  1
  Cl  Cl86  1  0.86871917  0.19342894  0.85243778  1
  Cl  Cl87  1  0.26740545  0.05333544  0.05695372  1
  Cl  Cl88  1  0.30657106  0.35243778  0.86871917  1
  Cl  Cl89  1  0.19342894  0.85243778  0.86871917  1
  Cl  Cl90  1  0.69342894  0.85243778  0.63128083  1
  Cl  Cl91  1  0.26740545  0.44666456  0.55695372  1
  Cl  Cl92  1  0.63128083  0.80657106  0.35243778  1
  Cl  Cl93  1  0.86871917  0.30657106  0.35243778  1
  Cl  Cl94  1  0.36871917  0.19342894  0.64756222  1
  Cl  Cl95  1  0.94304628  0.73259455  0.94666456  1
  Cl  Cl96  1  0.05333544  0.05695372  0.26740545  1
  Cl  Cl97  1  0.80657106  0.35243778  0.63128083  1
  Cl  Cl98  1  0.14756222  0.13128083  0.80657106  1
  Cl  Cl99  1  0.76740545  0.05333544  0.44304628  1
  Cl  Cl100  1  0.76740545  0.44666456  0.94304628  1
  Cl  Cl101  1  0.55695372  0.26740545  0.44666456  1
  Cl  Cl102  1  0.23259455  0.55333544  0.05695372  1
  Cl  Cl103  1  0.73259455  0.94666456  0.94304628  1
