# generated using pymatgen
data_KSm2Sb3Se8
_symmetry_space_group_name_H-M   'P 1'
_cell_length_a   4.13961035
_cell_length_b   17.13508840
_cell_length_c   22.31865922
_cell_angle_alpha   90.00000000
_cell_angle_beta   90.00000000
_cell_angle_gamma   90.00000000
_symmetry_Int_Tables_number   1
_chemical_formula_structural   KSm2Sb3Se8
_chemical_formula_sum   'K4 Sm8 Sb12 Se32'
_cell_volume   1583.12028793
_cell_formula_units_Z   4
loop_
 _symmetry_equiv_pos_site_id
 _symmetry_equiv_pos_as_xyz
  1  'x, y, z'
loop_
 _atom_site_type_symbol
 _atom_site_label
 _atom_site_symmetry_multiplicity
 _atom_site_fract_x
 _atom_site_fract_y
 _atom_site_fract_z
 _atom_site_occupancy
  K  K0  1  0.75000000  0.29773630  0.24407005  1
  K  K1  1  0.25000000  0.70226370  0.75592995  1
  K  K2  1  0.75000000  0.79773630  0.25592995  1
  K  K3  1  0.25000000  0.20226370  0.74407005  1
  Sm  Sm4  1  0.75000000  0.96328517  0.08979007  1
  Sm  Sm5  1  0.75000000  0.46328517  0.41020993  1
  Sm  Sm6  1  0.25000000  0.29115572  0.54454465  1
  Sm  Sm7  1  0.25000000  0.53671483  0.58979007  1
  Sm  Sm8  1  0.25000000  0.79115572  0.95545535  1
  Sm  Sm9  1  0.75000000  0.70884428  0.45545535  1
  Sm  Sm10  1  0.75000000  0.20884428  0.04454465  1
  Sm  Sm11  1  0.25000000  0.03671483  0.91020993  1
  Sb  Sb12  1  0.25000000  0.42282711  0.08689125  1
  Sb  Sb13  1  0.25000000  0.03587742  0.24218327  1
  Sb  Sb14  1  0.25000000  0.35535119  0.90052610  1
  Sb  Sb15  1  0.75000000  0.64464881  0.09947390  1
  Sb  Sb16  1  0.25000000  0.85535119  0.59947390  1
  Sb  Sb17  1  0.25000000  0.53587742  0.25781673  1
  Sb  Sb18  1  0.75000000  0.46412258  0.74218327  1
  Sb  Sb19  1  0.75000000  0.57717289  0.91310875  1
  Sb  Sb20  1  0.75000000  0.14464881  0.40052610  1
  Sb  Sb21  1  0.75000000  0.07717289  0.58689125  1
  Sb  Sb22  1  0.75000000  0.96412258  0.75781673  1
  Sb  Sb23  1  0.25000000  0.92282711  0.41310875  1
  Se  Se24  1  0.25000000  0.89692583  0.82406651  1
  Se  Se25  1  0.25000000  0.21165017  0.94733131  1
  Se  Se26  1  0.25000000  0.61808483  0.99747439  1
  Se  Se27  1  0.25000000  0.67897625  0.17630933  1
  Se  Se28  1  0.25000000  0.11808483  0.50252561  1
  Se  Se29  1  0.75000000  0.28834983  0.44733131  1
  Se  Se30  1  0.25000000  0.52813955  0.82967598  1
  Se  Se31  1  0.75000000  0.22219813  0.62569506  1
  Se  Se32  1  0.75000000  0.88191517  0.49747439  1
  Se  Se33  1  0.75000000  0.32102375  0.82369067  1
  Se  Se34  1  0.75000000  0.60307417  0.32406651  1
  Se  Se35  1  0.75000000  0.92563848  0.95806306  1
  Se  Se36  1  0.25000000  0.40665286  0.33068572  1
  Se  Se37  1  0.75000000  0.82102375  0.67630933  1
  Se  Se38  1  0.25000000  0.02813955  0.67032402  1
  Se  Se39  1  0.75000000  0.10307417  0.17593349  1
  Se  Se40  1  0.25000000  0.90665286  0.16931428  1
  Se  Se41  1  0.25000000  0.77780187  0.37430494  1
  Se  Se42  1  0.75000000  0.97186045  0.32967598  1
  Se  Se43  1  0.25000000  0.07436152  0.04193694  1
  Se  Se44  1  0.75000000  0.59334714  0.66931428  1
  Se  Se45  1  0.25000000  0.71165017  0.55266869  1
  Se  Se46  1  0.25000000  0.17897625  0.32369067  1
  Se  Se47  1  0.25000000  0.39692583  0.67593349  1
  Se  Se48  1  0.75000000  0.72219813  0.87430494  1
  Se  Se49  1  0.75000000  0.38191517  0.00252561  1
  Se  Se50  1  0.75000000  0.09334714  0.83068572  1
  Se  Se51  1  0.75000000  0.47186045  0.17032402  1
  Se  Se52  1  0.25000000  0.27780187  0.12569506  1
  Se  Se53  1  0.25000000  0.57436152  0.45806306  1
  Se  Se54  1  0.75000000  0.42563848  0.54193694  1
  Se  Se55  1  0.75000000  0.78834983  0.05266869  1
