# generated using pymatgen
data_LiCa9Mn(PO4)7
_symmetry_space_group_name_H-M   'P 1'
_cell_length_a   13.90664908
_cell_length_b   13.90664901
_cell_length_c   13.90664857
_cell_angle_alpha   44.09217843
_cell_angle_beta   44.09217873
_cell_angle_gamma   44.09217979
_symmetry_Int_Tables_number   1
_chemical_formula_structural   LiCa9Mn(PO4)7
_chemical_formula_sum   'Li2 Ca18 Mn2 P14 O56'
_cell_volume   1182.91555648
_cell_formula_units_Z   2
loop_
 _symmetry_equiv_pos_site_id
 _symmetry_equiv_pos_as_xyz
  1  'x, y, z'
loop_
 _atom_site_type_symbol
 _atom_site_label
 _atom_site_symmetry_multiplicity
 _atom_site_fract_x
 _atom_site_fract_y
 _atom_site_fract_z
 _atom_site_occupancy
  Li  Li0  1  0.17804013  0.17804013  0.17804013  1
  Li  Li1  1  0.67804013  0.67804013  0.67804013  1
  Ca  Ca2  1  0.56502814  0.57669213  0.16007729  1
  Ca  Ca3  1  0.90678395  0.93440490  0.35329782  1
  Ca  Ca4  1  0.93440490  0.35329782  0.90678395  1
  Ca  Ca5  1  0.94994115  0.55873729  0.96963189  1
  Ca  Ca6  1  0.07669213  0.06502814  0.66007729  1
  Ca  Ca7  1  0.96963189  0.94994115  0.55873729  1
  Ca  Ca8  1  0.05873729  0.44994115  0.46963189  1
  Ca  Ca9  1  0.35329782  0.90678395  0.93440490  1
  Ca  Ca10  1  0.85329782  0.43440490  0.40678395  1
  Ca  Ca11  1  0.16007729  0.56502814  0.57669213  1
  Ca  Ca12  1  0.57669213  0.16007729  0.56502814  1
  Ca  Ca13  1  0.40678395  0.85329782  0.43440490  1
  Ca  Ca14  1  0.46963189  0.05873729  0.44994115  1
  Ca  Ca15  1  0.44994115  0.46963189  0.05873729  1
  Ca  Ca16  1  0.06502814  0.66007729  0.07669213  1
  Ca  Ca17  1  0.43440490  0.40678395  0.85329782  1
  Ca  Ca18  1  0.66007729  0.07669213  0.06502814  1
  Ca  Ca19  1  0.55873729  0.96963189  0.94994115  1
  Mn  Mn20  1  0.00204595  0.00204595  0.00204595  1
  Mn  Mn21  1  0.50204595  0.50204595  0.50204595  1
  P  P22  1  0.68633151  0.72564097  0.18617343  1
  P  P23  1  0.18633151  0.68617343  0.22564097  1
  P  P24  1  0.83069099  0.30554374  0.26872705  1
  P  P25  1  0.76872705  0.80554374  0.33069099  1
  P  P26  1  0.18617343  0.68633151  0.72564097  1
  P  P27  1  0.68617343  0.22564097  0.18633151  1
  P  P28  1  0.72564097  0.18617343  0.68633151  1
  P  P29  1  0.22564097  0.18633151  0.68617343  1
  P  P30  1  0.76686794  0.76686794  0.76686794  1
  P  P31  1  0.26872705  0.83069099  0.30554374  1
  P  P32  1  0.80554374  0.33069099  0.76872705  1
  P  P33  1  0.26686794  0.26686794  0.26686794  1
  P  P34  1  0.30554374  0.26872705  0.83069099  1
  P  P35  1  0.33069099  0.76872705  0.80554374  1
  O  O36  1  0.61516117  0.18916717  0.17256571  1
  O  O37  1  0.67256571  0.68916717  0.11516117  1
  O  O38  1  0.08955481  0.64619376  0.39850956  1
  O  O39  1  0.86914043  0.87576880  0.15569884  1
  O  O40  1  0.36914043  0.65569884  0.37576880  1
  O  O41  1  0.64619376  0.39850956  0.08955481  1
  O  O42  1  0.62196454  0.63807457  0.36309133  1
  O  O43  1  0.37576880  0.36914043  0.65569884  1
  O  O44  1  0.34532494  0.88149942  0.13259815  1
  O  O45  1  0.24870064  0.93283217  0.33724473  1
  O  O46  1  0.11170745  0.39440865  0.25492036  1
  O  O47  1  0.25492036  0.11170745  0.39440865  1
  O  O48  1  0.60773091  0.89279353  0.33823132  1
  O  O49  1  0.84532494  0.63259815  0.38149942  1
  O  O50  1  0.33724473  0.24870064  0.93283217  1
  O  O51  1  0.83724473  0.43283217  0.74870064  1
  O  O52  1  0.14619376  0.58955481  0.89850956  1
  O  O53  1  0.58955481  0.89850956  0.14619376  1
  O  O54  1  0.63259815  0.38149942  0.84532494  1
  O  O55  1  0.12498712  0.85713768  0.67204215  1
  O  O56  1  0.89279353  0.33823132  0.60773091  1
  O  O57  1  0.30819383  0.30819383  0.30819383  1
  O  O58  1  0.83823132  0.39279353  0.10773091  1
  O  O59  1  0.62498712  0.17204215  0.35713768  1
  O  O60  1  0.38149942  0.84532494  0.63259815  1
  O  O61  1  0.43283217  0.74870064  0.83724473  1
  O  O62  1  0.12196454  0.86309133  0.13807457  1
  O  O63  1  0.89440865  0.61170745  0.75492036  1
  O  O64  1  0.10773091  0.83823132  0.39279353  1
  O  O65  1  0.68916717  0.11516117  0.67256571  1
  O  O66  1  0.88149942  0.13259815  0.34532494  1
  O  O67  1  0.65569884  0.37576880  0.36914043  1
  O  O68  1  0.89850956  0.14619376  0.58955481  1
  O  O69  1  0.33823132  0.60773091  0.89279353  1
  O  O70  1  0.39850956  0.08955481  0.64619376  1
  O  O71  1  0.39440865  0.25492036  0.11170745  1
  O  O72  1  0.36309133  0.62196454  0.63807457  1
  O  O73  1  0.13259815  0.34532494  0.88149942  1
  O  O74  1  0.17204215  0.35713768  0.62498712  1
  O  O75  1  0.18916717  0.17256571  0.61516117  1
  O  O76  1  0.17256571  0.61516117  0.18916717  1
  O  O77  1  0.85713768  0.67204215  0.12498712  1
  O  O78  1  0.15569884  0.86914043  0.87576880  1
  O  O79  1  0.11516117  0.67256571  0.68916717  1
  O  O80  1  0.87576880  0.15569884  0.86914043  1
  O  O81  1  0.75492036  0.89440865  0.61170745  1
  O  O82  1  0.74870064  0.83724473  0.43283217  1
  O  O83  1  0.61170745  0.75492036  0.89440865  1
  O  O84  1  0.63807457  0.36309133  0.62196454  1
  O  O85  1  0.39279353  0.10773091  0.83823132  1
  O  O86  1  0.35713768  0.62498712  0.17204215  1
  O  O87  1  0.67204215  0.12498712  0.85713768  1
  O  O88  1  0.93283217  0.33724473  0.24870064  1
  O  O89  1  0.13807457  0.12196454  0.86309133  1
  O  O90  1  0.86309133  0.13807457  0.12196454  1
  O  O91  1  0.80819383  0.80819383  0.80819383  1
