# generated using pymatgen
data_Nd(AlGa)2
_symmetry_space_group_name_H-M   'P 1'
_cell_length_a   4.22567528
_cell_length_b   4.22566403
_cell_length_c   6.35644127
_cell_angle_alpha   109.48854745
_cell_angle_beta   109.48852532
_cell_angle_gamma   89.95965280
_symmetry_Int_Tables_number   1
_chemical_formula_structural   Nd(AlGa)2
_chemical_formula_sum   'Nd1 Al2 Ga2'
_cell_volume   100.08532406
_cell_formula_units_Z   1
loop_
 _symmetry_equiv_pos_site_id
 _symmetry_equiv_pos_as_xyz
  1  'x, y, z'
loop_
 _atom_site_type_symbol
 _atom_site_label
 _atom_site_symmetry_multiplicity
 _atom_site_fract_x
 _atom_site_fract_y
 _atom_site_fract_z
 _atom_site_occupancy
  Nd  Nd0  1  0.00000000  0.00000000  0.00000000  1
  Al  Al1  1  0.25006304  0.74993672  0.49999975  1
  Al  Al2  1  0.74993696  0.25006328  0.50000025  1
  Ga  Ga3  1  0.61175037  0.61175038  0.22354828  1
  Ga  Ga4  1  0.38824963  0.38824962  0.77645172  1
