# generated using pymatgen
data_Dy5C2Br9
_symmetry_space_group_name_H-M   'P 1'
_cell_length_a   10.17736523
_cell_length_b   11.90985469
_cell_length_c   16.59680133
_cell_angle_alpha   90.00000000
_cell_angle_beta   90.00000000
_cell_angle_gamma   105.01268382
_symmetry_Int_Tables_number   1
_chemical_formula_structural   Dy5C2Br9
_chemical_formula_sum   'Dy20 C8 Br36'
_cell_volume   1943.05110723
_cell_formula_units_Z   4
loop_
 _symmetry_equiv_pos_site_id
 _symmetry_equiv_pos_as_xyz
  1  'x, y, z'
loop_
 _atom_site_type_symbol
 _atom_site_label
 _atom_site_symmetry_multiplicity
 _atom_site_fract_x
 _atom_site_fract_y
 _atom_site_fract_z
 _atom_site_occupancy
  Dy  Dy0  1  0.37354528  0.03428958  0.46020506  1
  Dy  Dy1  1  0.45455647  0.31186162  0.55782877  1
  Dy  Dy2  1  0.84175809  0.55579015  0.81476069  1
  Dy  Dy3  1  0.75459749  0.26230312  0.44494244  1
  Dy  Dy4  1  0.79225720  0.27911539  0.16168872  1
  Dy  Dy5  1  0.34175809  0.05579015  0.68523931  1
  Dy  Dy6  1  0.87354528  0.53428958  0.03979494  1
  Dy  Dy7  1  0.25459749  0.76230312  0.05505756  1
  Dy  Dy8  1  0.29225720  0.77911539  0.33831128  1
  Dy  Dy9  1  0.95455647  0.81186162  0.94217123  1
  Dy  Dy10  1  0.24540251  0.73769688  0.55505756  1
  Dy  Dy11  1  0.62645472  0.96571042  0.53979494  1
  Dy  Dy12  1  0.12645472  0.46571042  0.96020506  1
  Dy  Dy13  1  0.04544353  0.18813838  0.05782877  1
  Dy  Dy14  1  0.15824191  0.44420985  0.18523931  1
  Dy  Dy15  1  0.54544353  0.68813838  0.44217123  1
  Dy  Dy16  1  0.20774280  0.72088461  0.83831128  1
  Dy  Dy17  1  0.70774280  0.22088461  0.66168872  1
  Dy  Dy18  1  0.65824191  0.94420985  0.31476069  1
  Dy  Dy19  1  0.74540251  0.23769688  0.94494244  1
  C  C20  1  0.09607730  0.66903965  0.96958347  1
  C  C21  1  0.59607730  0.16903965  0.53041653  1
  C  C22  1  0.90392270  0.33096035  0.03041653  1
  C  C23  1  0.40392270  0.83096035  0.46958347  1
  C  C24  1  0.00868375  0.38024971  0.08785274  1
  C  C25  1  0.49131625  0.11975029  0.58785274  1
  C  C26  1  0.50868375  0.88024971  0.41214726  1
  C  C27  1  0.99131625  0.61975029  0.91214726  1
  Br  Br28  1  0.64387237  0.44186378  0.93204889  1
  Br  Br29  1  0.54309616  0.14192523  0.80613478  1
  Br  Br30  1  0.74792885  0.75247200  0.82186309  1
  Br  Br31  1  0.56528593  0.15480461  0.06814345  1
  Br  Br32  1  0.06528593  0.65480461  0.43185655  1
  Br  Br33  1  0.85612763  0.05813622  0.43204889  1
  Br  Br34  1  0.81182567  0.03212167  0.67240323  1
  Br  Br35  1  0.86546036  0.06303958  0.18226709  1
  Br  Br36  1  0.90758393  0.32972759  0.80119641  1
  Br  Br37  1  0.22823406  0.26481153  0.93684672  1
  Br  Br38  1  0.85973593  0.04175920  0.94282058  1
  Br  Br39  1  0.64026407  0.45824080  0.44282058  1
  Br  Br40  1  0.63453964  0.43696042  0.68226709  1
  Br  Br41  1  0.59241607  0.17027241  0.30119641  1
  Br  Br42  1  0.25207115  0.24752800  0.17813691  1
  Br  Br43  1  0.31182567  0.53212167  0.82759677  1
  Br  Br44  1  0.75207115  0.74752800  0.32186309  1
  Br  Br45  1  0.68817433  0.46787833  0.17240323  1
  Br  Br46  1  0.35612763  0.55813622  0.06795111  1
  Br  Br47  1  0.27176594  0.23518847  0.43684672  1
  Br  Br48  1  0.43471407  0.84519539  0.93185655  1
  Br  Br49  1  0.04309616  0.64192523  0.69386522  1
  Br  Br50  1  0.40758393  0.82972759  0.69880359  1
  Br  Br51  1  0.09241607  0.67027241  0.19880359  1
  Br  Br52  1  0.14387237  0.94186378  0.56795111  1
  Br  Br53  1  0.77176594  0.73518847  0.06315328  1
  Br  Br54  1  0.72823406  0.76481153  0.56315328  1
  Br  Br55  1  0.45690384  0.85807477  0.19386522  1
  Br  Br56  1  0.24792885  0.25247200  0.67813691  1
  Br  Br57  1  0.35973593  0.54175920  0.55717942  1
  Br  Br58  1  0.13453964  0.93696042  0.81773291  1
  Br  Br59  1  0.36546036  0.56303958  0.31773291  1
  Br  Br60  1  0.95690384  0.35807477  0.30613478  1
  Br  Br61  1  0.14026407  0.95824080  0.05717942  1
  Br  Br62  1  0.18817433  0.96787833  0.32759677  1
  Br  Br63  1  0.93471407  0.34519539  0.56814345  1
