# generated using pymatgen
data_Ca(LaI4)2
_symmetry_space_group_name_H-M   'P 1'
_cell_length_a   10.79583385
_cell_length_b   10.79583385
_cell_length_c   12.46123158
_cell_angle_alpha   67.78921567
_cell_angle_beta   112.21078433
_cell_angle_gamma   117.39905232
_symmetry_Int_Tables_number   1
_chemical_formula_structural   Ca(LaI4)2
_chemical_formula_sum   'Ca2 La4 I16'
_cell_volume   1156.38582743
_cell_formula_units_Z   2
loop_
 _symmetry_equiv_pos_site_id
 _symmetry_equiv_pos_as_xyz
  1  'x, y, z'
loop_
 _atom_site_type_symbol
 _atom_site_label
 _atom_site_symmetry_multiplicity
 _atom_site_fract_x
 _atom_site_fract_y
 _atom_site_fract_z
 _atom_site_occupancy
  Ca  Ca0  1  0.99060973  0.99060973  0.75000000  1
  Ca  Ca1  1  0.00939027  0.00939027  0.25000000  1
  La  La2  1  0.51285109  0.00172764  0.71731440  1
  La  La3  1  0.99827236  0.48714891  0.21731440  1
  La  La4  1  0.00172764  0.51285109  0.78268560  1
  La  La5  1  0.48714891  0.99827236  0.28268560  1
  I  I6  1  0.34603143  0.67196138  0.82781436  1
  I  I7  1  0.79150735  0.96072619  0.90315876  1
  I  I8  1  0.06777878  0.32382224  0.69008371  1
  I  I9  1  0.67511010  0.96206792  0.56011440  1
  I  I10  1  0.32803862  0.65396857  0.32781436  1
  I  I11  1  0.03927381  0.20849265  0.40315876  1
  I  I12  1  0.67617776  0.93222122  0.19008371  1
  I  I13  1  0.03793208  0.32488990  0.06011440  1
  I  I14  1  0.96206792  0.67511010  0.93988560  1
  I  I15  1  0.32382224  0.06777878  0.80991629  1
  I  I16  1  0.96072619  0.79150735  0.59684124  1
  I  I17  1  0.67196138  0.34603143  0.67218564  1
  I  I18  1  0.32488990  0.03793208  0.43988560  1
  I  I19  1  0.93222122  0.67617776  0.30991629  1
  I  I20  1  0.20849265  0.03927381  0.09684124  1
  I  I21  1  0.65396857  0.32803862  0.17218564  1
