# generated using pymatgen
data_Cs2Cd3Te4
_symmetry_space_group_name_H-M   'P 1'
_cell_length_a   6.88900858
_cell_length_b   10.92144339
_cell_length_c   10.92144286
_cell_angle_alpha   75.90870014
_cell_angle_beta   71.61568915
_cell_angle_gamma   71.61569455
_symmetry_Int_Tables_number   1
_chemical_formula_structural   Cs2Cd3Te4
_chemical_formula_sum   'Cs4 Cd6 Te8'
_cell_volume   730.44978488
_cell_formula_units_Z   2
loop_
 _symmetry_equiv_pos_site_id
 _symmetry_equiv_pos_as_xyz
  1  'x, y, z'
loop_
 _atom_site_type_symbol
 _atom_site_label
 _atom_site_symmetry_multiplicity
 _atom_site_fract_x
 _atom_site_fract_y
 _atom_site_fract_z
 _atom_site_occupancy
  Cs  Cs0  1  0.73151099  0.87727918  0.12272082  1
  Cs  Cs1  1  0.76848901  0.37727918  0.62272082  1
  Cs  Cs2  1  0.23151099  0.62272082  0.37727918  1
  Cs  Cs3  1  0.26848901  0.12272082  0.87727918  1
  Cd  Cd4  1  0.75000000  0.97801694  0.52198306  1
  Cd  Cd5  1  0.25000000  0.75000000  0.75000000  1
  Cd  Cd6  1  0.25000000  0.47801694  0.02198306  1
  Cd  Cd7  1  0.75000000  0.52198306  0.97801694  1
  Cd  Cd8  1  0.75000000  0.25000000  0.25000000  1
  Cd  Cd9  1  0.25000000  0.02198306  0.47801694  1
  Te  Te10  1  0.63353411  0.27370681  0.01101283  1
  Te  Te11  1  0.41825375  0.22629319  0.48898717  1
  Te  Te12  1  0.58174625  0.77370681  0.51101283  1
  Te  Te13  1  0.08174625  0.01101283  0.27370681  1
  Te  Te14  1  0.36646589  0.72629319  0.98898717  1
  Te  Te15  1  0.13353411  0.51101283  0.77370681  1
  Te  Te16  1  0.86646589  0.48898717  0.22629319  1
  Te  Te17  1  0.91825375  0.98898717  0.72629319  1
