# generated using pymatgen
data_Sr3Li4(GeN3)2
_symmetry_space_group_name_H-M   'P 1'
_cell_length_a   5.93188572
_cell_length_b   5.93188609
_cell_length_c   6.36369633
_cell_angle_alpha   90.67758639
_cell_angle_beta   90.67758641
_cell_angle_gamma   117.00544865
_symmetry_Int_Tables_number   1
_chemical_formula_structural   Sr3Li4(GeN3)2
_chemical_formula_sum   'Sr3 Li4 Ge2 N6'
_cell_volume   199.45438143
_cell_formula_units_Z   1
loop_
 _symmetry_equiv_pos_site_id
 _symmetry_equiv_pos_as_xyz
  1  'x, y, z'
loop_
 _atom_site_type_symbol
 _atom_site_label
 _atom_site_symmetry_multiplicity
 _atom_site_fract_x
 _atom_site_fract_y
 _atom_site_fract_z
 _atom_site_occupancy
  Sr  Sr0  1  0.81051352  0.18948648  0.50000000  1
  Sr  Sr1  1  0.18948648  0.81051352  0.50000000  1
  Sr  Sr2  1  0.00000000  0.00000000  0.00000000  1
  Li  Li3  1  0.18346298  0.54201034  0.11825780  1
  Li  Li4  1  0.81653702  0.45798966  0.88174220  1
  Li  Li5  1  0.45798966  0.81653702  0.88174220  1
  Li  Li6  1  0.54201034  0.18346298  0.11825780  1
  Ge  Ge7  1  0.61229132  0.61229132  0.32058728  1
  Ge  Ge8  1  0.38770868  0.38770868  0.67941272  1
  N  N9  1  0.45051588  0.13939747  0.80111569  1
  N  N10  1  0.54948412  0.86060253  0.19888431  1
  N  N11  1  0.30051780  0.30051780  0.36827156  1
  N  N12  1  0.69948220  0.69948220  0.63172844  1
  N  N13  1  0.13939747  0.45051588  0.80111569  1
  N  N14  1  0.86060253  0.54948412  0.19888431  1
