# generated using pymatgen
data_Sr3MgGeN4
_symmetry_space_group_name_H-M   'P 1'
_cell_length_a   5.99256934
_cell_length_b   9.69183070
_cell_length_c   10.41232946
_cell_angle_alpha   90.00000000
_cell_angle_beta   90.00000000
_cell_angle_gamma   90.00000000
_symmetry_Int_Tables_number   1
_chemical_formula_structural   Sr3MgGeN4
_chemical_formula_sum   'Sr12 Mg4 Ge4 N16'
_cell_volume   604.73734432
_cell_formula_units_Z   4
loop_
 _symmetry_equiv_pos_site_id
 _symmetry_equiv_pos_as_xyz
  1  'x, y, z'
loop_
 _atom_site_type_symbol
 _atom_site_label
 _atom_site_symmetry_multiplicity
 _atom_site_fract_x
 _atom_site_fract_y
 _atom_site_fract_z
 _atom_site_occupancy
  Sr  Sr0  1  0.75000000  0.40727766  0.00000000  1
  Sr  Sr1  1  0.11257839  0.90971052  0.15314829  1
  Sr  Sr2  1  0.38742161  0.59028948  0.65314829  1
  Sr  Sr3  1  0.88742161  0.09028948  0.84685171  1
  Sr  Sr4  1  0.88742161  0.40971052  0.65314829  1
  Sr  Sr5  1  0.75000000  0.09272234  0.50000000  1
  Sr  Sr6  1  0.38742161  0.90971052  0.84685171  1
  Sr  Sr7  1  0.61257839  0.40971052  0.34685171  1
  Sr  Sr8  1  0.25000000  0.59272234  0.00000000  1
  Sr  Sr9  1  0.11257839  0.59028948  0.34685171  1
  Sr  Sr10  1  0.61257839  0.09028948  0.15314829  1
  Sr  Sr11  1  0.25000000  0.90727766  0.50000000  1
  Mg  Mg12  1  0.15695920  0.25000000  0.25000000  1
  Mg  Mg13  1  0.84304080  0.75000000  0.75000000  1
  Mg  Mg14  1  0.34304080  0.25000000  0.75000000  1
  Mg  Mg15  1  0.65695920  0.75000000  0.25000000  1
  Ge  Ge16  1  0.75000000  0.76841166  0.50000000  1
  Ge  Ge17  1  0.75000000  0.73158834  0.00000000  1
  Ge  Ge18  1  0.25000000  0.26841166  0.00000000  1
  Ge  Ge19  1  0.25000000  0.23158834  0.50000000  1
  N  N20  1  0.98560183  0.66358347  0.58387316  1
  N  N21  1  0.38327133  0.37220959  0.13644889  1
  N  N22  1  0.88327133  0.87220959  0.36355111  1
  N  N23  1  0.01439817  0.16358347  0.08387316  1
  N  N24  1  0.48560183  0.16358347  0.91612684  1
  N  N25  1  0.48560183  0.33641653  0.58387316  1
  N  N26  1  0.98560183  0.83641653  0.91612684  1
  N  N27  1  0.01439817  0.33641653  0.41612684  1
  N  N28  1  0.88327133  0.62779041  0.13644889  1
  N  N29  1  0.51439817  0.66358347  0.41612684  1
  N  N30  1  0.61672867  0.62779041  0.86355111  1
  N  N31  1  0.38327133  0.12779041  0.36355111  1
  N  N32  1  0.61672867  0.87220959  0.63644889  1
  N  N33  1  0.11672867  0.37220959  0.86355111  1
  N  N34  1  0.11672867  0.12779041  0.63644889  1
  N  N35  1  0.51439817  0.83641653  0.08387316  1
