# generated using pymatgen
data_Nd4Mg3Co2
_symmetry_space_group_name_H-M   'P 1'
_cell_length_a   3.85035667
_cell_length_b   7.62643384
_cell_length_c   8.31146378
_cell_angle_alpha   109.79767449
_cell_angle_beta   90.00000000
_cell_angle_gamma   90.00000000
_symmetry_Int_Tables_number   1
_chemical_formula_structural   Nd4Mg3Co2
_chemical_formula_sum   'Nd4 Mg3 Co2'
_cell_volume   229.63650203
_cell_formula_units_Z   1
loop_
 _symmetry_equiv_pos_site_id
 _symmetry_equiv_pos_as_xyz
  1  'x, y, z'
loop_
 _atom_site_type_symbol
 _atom_site_label
 _atom_site_symmetry_multiplicity
 _atom_site_fract_x
 _atom_site_fract_y
 _atom_site_fract_z
 _atom_site_occupancy
  Nd  Nd0  1  0.50000000  0.39803585  0.18211190  1
  Nd  Nd1  1  0.50000000  0.09675200  0.72520225  1
  Nd  Nd2  1  0.50000000  0.90324800  0.27479775  1
  Nd  Nd3  1  0.50000000  0.60196415  0.81788810  1
  Mg  Mg4  1  0.00000000  0.29373117  0.50163593  1
  Mg  Mg5  1  0.00000000  0.70626883  0.49836407  1
  Mg  Mg6  1  0.00000000  0.00000000  0.00000000  1
  Co  Co7  1  0.00000000  0.64800446  0.10551439  1
  Co  Co8  1  0.00000000  0.35199554  0.89448561  1
