# generated using pymatgen
data_BP(IBr)3
_symmetry_space_group_name_H-M   'P 1'
_cell_length_a   7.96490254
_cell_length_b   11.99979264
_cell_length_c   13.63943572
_cell_angle_alpha   90.00000000
_cell_angle_beta   90.00000000
_cell_angle_gamma   90.00000000
_symmetry_Int_Tables_number   1
_chemical_formula_structural   BP(IBr)3
_chemical_formula_sum   'B4 P4 I12 Br12'
_cell_volume   1303.61878760
_cell_formula_units_Z   4
loop_
 _symmetry_equiv_pos_site_id
 _symmetry_equiv_pos_as_xyz
  1  'x, y, z'
loop_
 _atom_site_type_symbol
 _atom_site_label
 _atom_site_symmetry_multiplicity
 _atom_site_fract_x
 _atom_site_fract_y
 _atom_site_fract_z
 _atom_site_occupancy
  B  B0  1  0.24986422  0.75000000  0.89438568  1
  B  B1  1  0.74986422  0.25000000  0.60561432  1
  B  B2  1  0.75013578  0.25000000  0.10561432  1
  B  B3  1  0.25013578  0.75000000  0.39438568  1
  P  P4  1  0.50085285  0.75000000  0.85964702  1
  P  P5  1  0.00085285  0.25000000  0.64035298  1
  P  P6  1  0.49914715  0.25000000  0.14035298  1
  P  P7  1  0.99914715  0.75000000  0.35964702  1
  I  I8  1  0.17790205  0.25000000  0.49488367  1
  I  I9  1  0.32209795  0.25000000  0.99488367  1
  I  I10  1  0.08008755  0.41297562  0.73631665  1
  I  I11  1  0.41991245  0.08702438  0.23631665  1
  I  I12  1  0.58008755  0.91297562  0.76368335  1
  I  I13  1  0.41991245  0.41297562  0.23631665  1
  I  I14  1  0.82209795  0.75000000  0.50511633  1
  I  I15  1  0.91991245  0.91297562  0.26368335  1
  I  I16  1  0.58008755  0.58702438  0.76368335  1
  I  I17  1  0.67790205  0.75000000  0.00511633  1
  I  I18  1  0.08008755  0.08702438  0.73631665  1
  I  I19  1  0.91991245  0.58702438  0.26368335  1
  Br  Br20  1  0.28278720  0.61023516  0.47089953  1
  Br  Br21  1  0.71721280  0.11023516  0.52910047  1
  Br  Br22  1  0.63445446  0.25000000  0.73556302  1
  Br  Br23  1  0.78278720  0.11023516  0.02910047  1
  Br  Br24  1  0.36554554  0.75000000  0.26443698  1
  Br  Br25  1  0.21721280  0.88976484  0.97089953  1
  Br  Br26  1  0.78278720  0.38976484  0.02910047  1
  Br  Br27  1  0.28278720  0.88976484  0.47089953  1
  Br  Br28  1  0.86554554  0.25000000  0.23556302  1
  Br  Br29  1  0.13445446  0.75000000  0.76443698  1
  Br  Br30  1  0.71721280  0.38976484  0.52910047  1
  Br  Br31  1  0.21721280  0.61023516  0.97089953  1
