# generated using pymatgen
data_Nd2B5
_symmetry_space_group_name_H-M   'P 1'
_cell_length_a   7.29082017
_cell_length_b   7.31947828
_cell_length_c   8.42068192
_cell_angle_alpha   107.18712748
_cell_angle_beta   115.65247222
_cell_angle_gamma   89.99999917
_symmetry_Int_Tables_number   1
_chemical_formula_structural   Nd2B5
_chemical_formula_sum   'Nd8 B20'
_cell_volume   382.69608508
_cell_formula_units_Z   4
loop_
 _symmetry_equiv_pos_site_id
 _symmetry_equiv_pos_as_xyz
  1  'x, y, z'
loop_
 _atom_site_type_symbol
 _atom_site_label
 _atom_site_symmetry_multiplicity
 _atom_site_fract_x
 _atom_site_fract_y
 _atom_site_fract_z
 _atom_site_occupancy
  Nd  Nd0  1  0.45110815  0.40127283  0.76169678  1
  Nd  Nd1  1  0.54889185  0.59872717  0.23830322  1
  Nd  Nd2  1  0.94317098  0.27692830  0.76270601  1
  Nd  Nd3  1  0.18046497  0.22307170  0.23729399  1
  Nd  Nd4  1  0.81953503  0.77692830  0.76270601  1
  Nd  Nd5  1  0.68941136  0.09872717  0.23830322  1
  Nd  Nd6  1  0.05682902  0.72307170  0.23729399  1
  Nd  Nd7  1  0.31058864  0.90127283  0.76169678  1
  B  B8  1  0.82802375  0.46018677  0.49963501  1
  B  B9  1  0.32838874  0.03981323  0.50036499  1
  B  B10  1  0.08943196  0.56055185  0.68025832  1
  B  B11  1  0.91056804  0.43944815  0.31974168  1
  B  B12  1  0.90783686  0.90812091  0.49887345  1
  B  B13  1  0.59103659  0.40812091  0.49887345  1
  B  B14  1  0.17197625  0.53981323  0.50036499  1
  B  B15  1  0.67161126  0.96018677  0.49963501  1
  B  B16  1  0.79793045  0.35185545  0.08509381  1
  B  B17  1  0.40896341  0.59187909  0.50112655  1
  B  B18  1  0.40917364  0.93944815  0.31974168  1
  B  B19  1  0.71283664  0.14814455  0.91490619  1
  B  B20  1  0.95935874  0.67083545  0.49775752  1
  B  B21  1  0.04064126  0.32916455  0.50224248  1
  B  B22  1  0.59082636  0.06055185  0.68025832  1
  B  B23  1  0.53839878  0.17083545  0.49775752  1
  B  B24  1  0.28716336  0.85185545  0.08509381  1
  B  B25  1  0.46160122  0.82916455  0.50224248  1
  B  B26  1  0.09216314  0.09187909  0.50112655  1
  B  B27  1  0.20206955  0.64814455  0.91490619  1
