# generated using pymatgen
data_SrLa6OsI12
_symmetry_space_group_name_H-M   'P 1'
_cell_length_a   10.19542489
_cell_length_b   10.19542521
_cell_length_c   10.19542568
_cell_angle_alpha   106.55433316
_cell_angle_beta   106.55433371
_cell_angle_gamma   106.55433686
_symmetry_Int_Tables_number   1
_chemical_formula_structural   SrLa6OsI12
_chemical_formula_sum   'Sr1 La6 Os1 I12'
_cell_volume   893.10830148
_cell_formula_units_Z   1
loop_
 _symmetry_equiv_pos_site_id
 _symmetry_equiv_pos_as_xyz
  1  'x, y, z'
loop_
 _atom_site_type_symbol
 _atom_site_label
 _atom_site_symmetry_multiplicity
 _atom_site_fract_x
 _atom_site_fract_y
 _atom_site_fract_z
 _atom_site_occupancy
  Sr  Sr0  1  0.50000000  0.50000000  0.50000000  1
  La  La1  1  0.09804309  0.30311803  0.02428166  1
  La  La2  1  0.69688197  0.97571834  0.90195691  1
  La  La3  1  0.90195691  0.69688197  0.97571834  1
  La  La4  1  0.97571834  0.90195691  0.69688197  1
  La  La5  1  0.02428166  0.09804309  0.30311803  1
  La  La6  1  0.30311803  0.02428166  0.09804309  1
  Os  Os7  1  0.00000000  0.00000000  0.00000000  1
  I  I8  1  0.62267343  0.85150780  0.54266604  1
  I  I9  1  0.31952640  0.92545949  0.77292747  1
  I  I10  1  0.77292747  0.31952640  0.92545949  1
  I  I11  1  0.92545949  0.77292747  0.31952640  1
  I  I12  1  0.45733396  0.37732657  0.14849220  1
  I  I13  1  0.85150780  0.54266604  0.62267343  1
  I  I14  1  0.07454051  0.22707253  0.68047360  1
  I  I15  1  0.22707253  0.68047360  0.07454051  1
  I  I16  1  0.68047360  0.07454051  0.22707253  1
  I  I17  1  0.14849220  0.45733396  0.37732657  1
  I  I18  1  0.37732657  0.14849220  0.45733396  1
  I  I19  1  0.54266604  0.62267343  0.85150780  1
