# generated using pymatgen
data_TbHoO3
_symmetry_space_group_name_H-M   'P 1'
_cell_length_a   5.69193122
_cell_length_b   5.95207164
_cell_length_c   8.43528236
_cell_angle_alpha   90.00000000
_cell_angle_beta   90.00000000
_cell_angle_gamma   90.00000000
_symmetry_Int_Tables_number   1
_chemical_formula_structural   TbHoO3
_chemical_formula_sum   'Tb4 Ho4 O12'
_cell_volume   285.77709548
_cell_formula_units_Z   4
loop_
 _symmetry_equiv_pos_site_id
 _symmetry_equiv_pos_as_xyz
  1  'x, y, z'
loop_
 _atom_site_type_symbol
 _atom_site_label
 _atom_site_symmetry_multiplicity
 _atom_site_fract_x
 _atom_site_fract_y
 _atom_site_fract_z
 _atom_site_occupancy
  Tb  Tb0  1  0.01695040  0.94832412  0.75000000  1
  Tb  Tb1  1  0.48304960  0.44832412  0.75000000  1
  Tb  Tb2  1  0.51695040  0.55167588  0.25000000  1
  Tb  Tb3  1  0.98304960  0.05167588  0.25000000  1
  Ho  Ho4  1  0.00000000  0.50000000  0.00000000  1
  Ho  Ho5  1  0.00000000  0.50000000  0.50000000  1
  Ho  Ho6  1  0.50000000  0.00000000  0.00000000  1
  Ho  Ho7  1  0.50000000  0.00000000  0.50000000  1
  O  O8  1  0.14804264  0.42048727  0.25000000  1
  O  O9  1  0.18169340  0.18519467  0.57799604  1
  O  O10  1  0.18169340  0.18519467  0.92200396  1
  O  O11  1  0.31830660  0.68519467  0.92200396  1
  O  O12  1  0.31830660  0.68519467  0.57799604  1
  O  O13  1  0.35195736  0.92048727  0.25000000  1
  O  O14  1  0.64804264  0.07951273  0.75000000  1
  O  O15  1  0.68169340  0.31480533  0.07799604  1
  O  O16  1  0.68169340  0.31480533  0.42200396  1
  O  O17  1  0.81830660  0.81480533  0.07799604  1
  O  O18  1  0.81830660  0.81480533  0.42200396  1
  O  O19  1  0.85195736  0.57951273  0.75000000  1
