# generated using pymatgen
data_BiAuCl6
_symmetry_space_group_name_H-M   'P 1'
_cell_length_a   7.69230875
_cell_length_b   10.17242427
_cell_length_c   14.34466903
_cell_angle_alpha   103.90728863
_cell_angle_beta   96.28568132
_cell_angle_gamma   111.83069778
_symmetry_Int_Tables_number   1
_chemical_formula_structural   BiAuCl6
_chemical_formula_sum   'Bi4 Au4 Cl24'
_cell_volume   986.48323679
_cell_formula_units_Z   4
loop_
 _symmetry_equiv_pos_site_id
 _symmetry_equiv_pos_as_xyz
  1  'x, y, z'
loop_
 _atom_site_type_symbol
 _atom_site_label
 _atom_site_symmetry_multiplicity
 _atom_site_fract_x
 _atom_site_fract_y
 _atom_site_fract_z
 _atom_site_occupancy
  Bi  Bi0  1  0.59603019  0.93054118  0.62067068  1
  Bi  Bi1  1  0.03202130  0.68490531  0.12837401  1
  Bi  Bi2  1  0.40396981  0.06945882  0.37932932  1
  Bi  Bi3  1  0.96797870  0.31509469  0.87162599  1
  Au  Au4  1  0.29414832  0.63111528  0.76596275  1
  Au  Au5  1  0.50000000  0.50000000  0.50000000  1
  Au  Au6  1  0.70585168  0.36888472  0.23403725  1
  Au  Au7  1  0.00000000  0.00000000  0.00000000  1
  Cl  Cl8  1  0.77598828  0.09478286  0.96682791  1
  Cl  Cl9  1  0.72839137  0.15821324  0.25741061  1
  Cl  Cl10  1  0.27160863  0.84178676  0.74258939  1
  Cl  Cl11  1  0.76850610  0.80002287  0.03012834  1
  Cl  Cl12  1  0.61314622  0.18858434  0.74144038  1
  Cl  Cl13  1  0.31372611  0.41675772  0.78678392  1
  Cl  Cl14  1  0.68627389  0.58324228  0.21321608  1
  Cl  Cl15  1  0.29685541  0.62048279  0.49727457  1
  Cl  Cl16  1  0.23149390  0.19997713  0.96987166  1
  Cl  Cl17  1  0.75862908  0.72381372  0.52172579  1
  Cl  Cl18  1  0.22401172  0.90521714  0.03317209  1
  Cl  Cl19  1  0.73378454  0.04947305  0.48631124  1
  Cl  Cl20  1  0.60911172  0.72395345  0.74968328  1
  Cl  Cl21  1  0.95668445  0.05508758  0.72518878  1
  Cl  Cl22  1  0.24137092  0.27618628  0.47827421  1
  Cl  Cl23  1  0.38685378  0.81141566  0.25855962  1
  Cl  Cl24  1  0.97645122  0.53806049  0.78177245  1
  Cl  Cl25  1  0.75698852  0.43420105  0.97484566  1
  Cl  Cl26  1  0.24301148  0.56579895  0.02515434  1
  Cl  Cl27  1  0.02354878  0.46193951  0.21822755  1
  Cl  Cl28  1  0.39088828  0.27604655  0.25031672  1
  Cl  Cl29  1  0.26621546  0.95052695  0.51368876  1
  Cl  Cl30  1  0.70314459  0.37951721  0.50272543  1
  Cl  Cl31  1  0.04331555  0.94491242  0.27481122  1
