# generated using pymatgen
data_SrLiCoF6
_symmetry_space_group_name_H-M   'P 1'
_cell_length_a   5.37426474
_cell_length_b   8.82581229
_cell_length_c   10.36527915
_cell_angle_alpha   90.00000000
_cell_angle_beta   92.63456275
_cell_angle_gamma   90.00000000
_symmetry_Int_Tables_number   1
_chemical_formula_structural   SrLiCoF6
_chemical_formula_sum   'Sr4 Li4 Co4 F24'
_cell_volume   491.12887004
_cell_formula_units_Z   4
loop_
 _symmetry_equiv_pos_site_id
 _symmetry_equiv_pos_as_xyz
  1  'x, y, z'
loop_
 _atom_site_type_symbol
 _atom_site_label
 _atom_site_symmetry_multiplicity
 _atom_site_fract_x
 _atom_site_fract_y
 _atom_site_fract_z
 _atom_site_occupancy
  Sr  Sr0  1  0.24657014  0.29521365  0.49879892  1
  Sr  Sr1  1  0.75342986  0.79521365  0.00120108  1
  Sr  Sr2  1  0.24657014  0.20478635  0.99879892  1
  Sr  Sr3  1  0.75342986  0.70478635  0.50120108  1
  Li  Li4  1  0.28356365  0.92191392  0.74467923  1
  Li  Li5  1  0.71643635  0.42191392  0.75532077  1
  Li  Li6  1  0.71643635  0.07808608  0.25532077  1
  Li  Li7  1  0.28356365  0.57808608  0.24467923  1
  Co  Co8  1  0.78450254  0.08367892  0.74087991  1
  Co  Co9  1  0.21549746  0.58367892  0.75912009  1
  Co  Co10  1  0.78450254  0.41632108  0.24087991  1
  Co  Co11  1  0.21549746  0.91632108  0.25912009  1
  F  F12  1  0.39091969  0.73522344  0.86262688  1
  F  F13  1  0.11722381  0.74836871  0.15190962  1
  F  F14  1  0.91755346  0.90519153  0.35694190  1
  F  F15  1  0.88277619  0.25163129  0.84809038  1
  F  F16  1  0.50925650  0.04873140  0.85998282  1
  F  F17  1  0.63198028  0.57747010  0.14914026  1
  F  F18  1  0.36801972  0.07747010  0.35085974  1
  F  F19  1  0.63198028  0.92252990  0.64914026  1
  F  F20  1  0.49074350  0.95126860  0.14001718  1
  F  F21  1  0.99750348  0.96230982  0.86174595  1
  F  F22  1  0.91755346  0.59480847  0.85694190  1
  F  F23  1  0.88277619  0.24836871  0.34809038  1
  F  F24  1  0.08244654  0.09480847  0.64305810  1
  F  F25  1  0.99750348  0.53769018  0.36174595  1
  F  F26  1  0.36801972  0.42252990  0.85085974  1
  F  F27  1  0.00249652  0.03769018  0.13825405  1
  F  F28  1  0.60908031  0.23522344  0.63737312  1
  F  F29  1  0.08244654  0.40519153  0.14305810  1
  F  F30  1  0.00249652  0.46230982  0.63825405  1
  F  F31  1  0.50925650  0.45126860  0.35998282  1
  F  F32  1  0.39091969  0.76477656  0.36262688  1
  F  F33  1  0.49074350  0.54873140  0.64001718  1
  F  F34  1  0.11722381  0.75163129  0.65190962  1
  F  F35  1  0.60908031  0.26477656  0.13737312  1
