# generated using pymatgen
data_Li2Sn(BO3)2
_symmetry_space_group_name_H-M   'P 1'
_cell_length_a   5.13302247
_cell_length_b   6.72420787
_cell_length_c   8.21757458
_cell_angle_alpha   71.55734826
_cell_angle_beta   90.16733250
_cell_angle_gamma   90.59036254
_symmetry_Int_Tables_number   1
_chemical_formula_structural   Li2Sn(BO3)2
_chemical_formula_sum   'Li4 Sn2 B4 O12'
_cell_volume   269.05226735
_cell_formula_units_Z   2
loop_
 _symmetry_equiv_pos_site_id
 _symmetry_equiv_pos_as_xyz
  1  'x, y, z'
loop_
 _atom_site_type_symbol
 _atom_site_label
 _atom_site_symmetry_multiplicity
 _atom_site_fract_x
 _atom_site_fract_y
 _atom_site_fract_z
 _atom_site_occupancy
  Li  Li0  1  0.18211394  0.92531263  0.89810839  1
  Li  Li1  1  0.36906945  0.78508669  0.59689202  1
  Li  Li2  1  0.63093055  0.21491331  0.40310798  1
  Li  Li3  1  0.81788606  0.07468737  0.10189161  1
  Sn  Sn4  1  0.12100955  0.57631932  0.25135079  1
  Sn  Sn5  1  0.87899045  0.42368068  0.74864921  1
  B  B6  1  0.14391356  0.18638222  0.55035621  1
  B  B7  1  0.32845132  0.34367906  0.88645589  1
  B  B8  1  0.67154868  0.65632094  0.11354411  1
  B  B9  1  0.85608644  0.81361778  0.44964379  1
  O  O10  1  0.10224927  0.73264479  0.42074651  1
  O  O11  1  0.24452174  0.53752512  0.77839432  1
  O  O12  1  0.12439298  0.20279859  0.94721560  1
  O  O13  1  0.27195146  0.30197988  0.39581398  1
  O  O14  1  0.25532721  0.01782956  0.65799518  1
  O  O15  1  0.41118167  0.70491960  0.08188899  1
  O  O16  1  0.58881833  0.29508040  0.91811101  1
  O  O17  1  0.74467279  0.98217044  0.34200482  1
  O  O18  1  0.72804854  0.69802012  0.60418602  1
  O  O19  1  0.87560702  0.79720141  0.05278440  1
  O  O20  1  0.75547826  0.46247488  0.22160568  1
  O  O21  1  0.89775073  0.26735521  0.57925349  1
