# generated using pymatgen
data_Ca10Mg2Sb9
_symmetry_space_group_name_H-M   'P 1'
_cell_length_a   11.93938613
_cell_length_b   11.93938613
_cell_length_c   17.37753079
_cell_angle_alpha   90.00000000
_cell_angle_beta   90.00000000
_cell_angle_gamma   90.00000000
_symmetry_Int_Tables_number   1
_chemical_formula_structural   Ca10Mg2Sb9
_chemical_formula_sum   'Ca40 Mg8 Sb36'
_cell_volume   2477.14861411
_cell_formula_units_Z   4
loop_
 _symmetry_equiv_pos_site_id
 _symmetry_equiv_pos_as_xyz
  1  'x, y, z'
loop_
 _atom_site_type_symbol
 _atom_site_label
 _atom_site_symmetry_multiplicity
 _atom_site_fract_x
 _atom_site_fract_y
 _atom_site_fract_z
 _atom_site_occupancy
  Ca  Ca0  1  0.98549144  0.66127238  0.39708837  1
  Ca  Ca1  1  0.98549144  0.66127238  0.60291163  1
  Ca  Ca2  1  0.24876895  0.51105039  0.69187432  1
  Ca  Ca3  1  0.01105039  0.25123105  0.19187432  1
  Ca  Ca4  1  0.01450856  0.33872762  0.60291163  1
  Ca  Ca5  1  0.50000000  0.50000000  0.86112800  1
  Ca  Ca6  1  0.48549144  0.83872762  0.10291163  1
  Ca  Ca7  1  0.74876895  0.98894961  0.80812568  1
  Ca  Ca8  1  0.51105039  0.24876895  0.69187432  1
  Ca  Ca9  1  0.01450856  0.33872762  0.39708837  1
  Ca  Ca10  1  0.50000000  0.50000000  0.13887200  1
  Ca  Ca11  1  0.48894961  0.75123105  0.30812568  1
  Ca  Ca12  1  0.66127238  0.98549144  0.60291163  1
  Ca  Ca13  1  0.66127238  0.98549144  0.39708837  1
  Ca  Ca14  1  0.75123105  0.48894961  0.69187432  1
  Ca  Ca15  1  0.98894961  0.74876895  0.19187432  1
  Ca  Ca16  1  0.18208189  0.81791811  0.00000000  1
  Ca  Ca17  1  0.00000000  0.00000000  0.63887200  1
  Ca  Ca18  1  0.51450856  0.16127238  0.89708837  1
  Ca  Ca19  1  0.25123105  0.01105039  0.80812568  1
  Ca  Ca20  1  0.31791811  0.31791811  0.50000000  1
  Ca  Ca21  1  0.00000000  0.00000000  0.36112800  1
  Ca  Ca22  1  0.01105039  0.25123105  0.80812568  1
  Ca  Ca23  1  0.48549144  0.83872762  0.89708837  1
  Ca  Ca24  1  0.75123105  0.48894961  0.30812568  1
  Ca  Ca25  1  0.83872762  0.48549144  0.10291163  1
  Ca  Ca26  1  0.33872762  0.01450856  0.60291163  1
  Ca  Ca27  1  0.48894961  0.75123105  0.69187432  1
  Ca  Ca28  1  0.74876895  0.98894961  0.19187432  1
  Ca  Ca29  1  0.33872762  0.01450856  0.39708837  1
  Ca  Ca30  1  0.98894961  0.74876895  0.80812568  1
  Ca  Ca31  1  0.51105039  0.24876895  0.30812568  1
  Ca  Ca32  1  0.83872762  0.48549144  0.89708837  1
  Ca  Ca33  1  0.16127238  0.51450856  0.89708837  1
  Ca  Ca34  1  0.68208189  0.68208189  0.50000000  1
  Ca  Ca35  1  0.24876895  0.51105039  0.30812568  1
  Ca  Ca36  1  0.16127238  0.51450856  0.10291163  1
  Ca  Ca37  1  0.51450856  0.16127238  0.10291163  1
  Ca  Ca38  1  0.81791811  0.18208189  0.00000000  1
  Ca  Ca39  1  0.25123105  0.01105039  0.19187432  1
  Mg  Mg40  1  0.78872226  0.21127774  0.50000000  1
  Mg  Mg41  1  0.28872226  0.28872226  0.00000000  1
  Mg  Mg42  1  0.71127774  0.71127774  0.00000000  1
  Mg  Mg43  1  0.21127774  0.78872226  0.50000000  1
  Mg  Mg44  1  0.10090527  0.10090527  0.00000000  1
  Mg  Mg45  1  0.39909473  0.60090527  0.50000000  1
  Mg  Mg46  1  0.60090527  0.39909473  0.50000000  1
  Mg  Mg47  1  0.89909473  0.89909473  0.00000000  1
  Sb  Sb48  1  0.81198964  0.18801036  0.33047839  1
  Sb  Sb49  1  0.50000000  0.50000000  0.63390805  1
  Sb  Sb50  1  0.28066989  0.71933011  0.17788793  1
  Sb  Sb51  1  0.71933011  0.28066989  0.17788793  1
  Sb  Sb52  1  0.63194375  0.36805625  0.00000000  1
  Sb  Sb53  1  0.00000000  0.50000000  0.25000000  1
  Sb  Sb54  1  0.81198964  0.18801036  0.66952161  1
  Sb  Sb55  1  0.31198964  0.31198964  0.16952161  1
  Sb  Sb56  1  0.66698059  0.96730901  0.00000000  1
  Sb  Sb57  1  0.18801036  0.81198964  0.33047839  1
  Sb  Sb58  1  0.50000000  0.00000000  0.25000000  1
  Sb  Sb59  1  0.78066989  0.78066989  0.67788793  1
  Sb  Sb60  1  0.50000000  0.00000000  0.75000000  1
  Sb  Sb61  1  0.50000000  0.50000000  0.36609195  1
  Sb  Sb62  1  0.00000000  0.00000000  0.86609195  1
  Sb  Sb63  1  0.71933011  0.28066989  0.82211207  1
  Sb  Sb64  1  0.21933011  0.21933011  0.67788793  1
  Sb  Sb65  1  0.18801036  0.81198964  0.66952161  1
  Sb  Sb66  1  0.96730901  0.66698059  0.00000000  1
  Sb  Sb67  1  0.78066989  0.78066989  0.32211207  1
  Sb  Sb68  1  0.46730901  0.83301941  0.50000000  1
  Sb  Sb69  1  0.16698059  0.53269099  0.50000000  1
  Sb  Sb70  1  0.68801036  0.68801036  0.16952161  1
  Sb  Sb71  1  0.86805625  0.86805625  0.50000000  1
  Sb  Sb72  1  0.33301941  0.03269099  0.00000000  1
  Sb  Sb73  1  0.83301941  0.46730901  0.50000000  1
  Sb  Sb74  1  0.36805625  0.63194375  0.00000000  1
  Sb  Sb75  1  0.53269099  0.16698059  0.50000000  1
  Sb  Sb76  1  0.03269099  0.33301941  0.00000000  1
  Sb  Sb77  1  0.21933011  0.21933011  0.32211207  1
  Sb  Sb78  1  0.68801036  0.68801036  0.83047839  1
  Sb  Sb79  1  0.13194375  0.13194375  0.50000000  1
  Sb  Sb80  1  0.00000000  0.50000000  0.75000000  1
  Sb  Sb81  1  0.28066989  0.71933011  0.82211207  1
  Sb  Sb82  1  0.31198964  0.31198964  0.83047839  1
  Sb  Sb83  1  0.00000000  0.00000000  0.13390805  1
