# generated using pymatgen
data_Hf5Re24
_symmetry_space_group_name_H-M   'P 1'
_cell_length_a   8.47380400
_cell_length_b   8.47380400
_cell_length_c   8.47380400
_cell_angle_alpha   109.47122063
_cell_angle_beta   109.47122063
_cell_angle_gamma   109.47122063
_symmetry_Int_Tables_number   1
_chemical_formula_structural   Hf5Re24
_chemical_formula_sum   'Hf5 Re24'
_cell_volume   468.39618874
_cell_formula_units_Z   1
loop_
 _symmetry_equiv_pos_site_id
 _symmetry_equiv_pos_as_xyz
  1  'x, y, z'
loop_
 _atom_site_type_symbol
 _atom_site_label
 _atom_site_symmetry_multiplicity
 _atom_site_fract_x
 _atom_site_fract_y
 _atom_site_fract_z
 _atom_site_occupancy
  Hf  Hf0  1  -0.00000000  -0.00000000  -0.00000000  1
  Hf  Hf1  1  0.62951144  0.00000000  0.00000000  1
  Hf  Hf2  1  0.00000000  0.62951144  -0.00000000  1
  Hf  Hf3  1  0.00000000  0.00000000  0.62951144  1
  Hf  Hf4  1  0.37048856  0.37048856  0.37048856  1
  Re  Re5  1  0.39548749  0.67733667  0.00000000  1
  Re  Re6  1  0.71815082  0.32266333  0.32266333  1
  Re  Re7  1  0.39548749  0.00000000  0.67733667  1
  Re  Re8  1  0.67733667  0.39548749  -0.00000000  1
  Re  Re9  1  0.00000000  0.39548749  0.67733667  1
  Re  Re10  1  0.32266333  0.71815082  0.32266333  1
  Re  Re11  1  0.32266333  0.32266333  0.71815082  1
  Re  Re12  1  0.00000000  0.67733667  0.39548749  1
  Re  Re13  1  0.67733667  0.00000000  0.39548749  1
  Re  Re14  1  0.60451251  0.60451251  0.28184918  1
  Re  Re15  1  0.28184918  0.60451251  0.60451251  1
  Re  Re16  1  0.60451251  0.28184918  0.60451251  1
  Re  Re17  1  0.37587046  0.19400299  -0.00000000  1
  Re  Re18  1  0.18186748  0.80599701  0.80599701  1
  Re  Re19  1  0.37587046  0.00000000  0.19400299  1
  Re  Re20  1  0.19400299  0.37587046  0.00000000  1
  Re  Re21  1  -0.00000000  0.37587046  0.19400299  1
  Re  Re22  1  0.80599701  0.18186748  0.80599701  1
  Re  Re23  1  0.80599701  0.80599701  0.18186748  1
  Re  Re24  1  0.00000000  0.19400299  0.37587046  1
  Re  Re25  1  0.19400299  0.00000000  0.37587046  1
  Re  Re26  1  0.62412954  0.62412954  0.81813252  1
  Re  Re27  1  0.81813252  0.62412954  0.62412954  1
  Re  Re28  1  0.62412954  0.81813252  0.62412954  1
