# generated using pymatgen
data_Mg8BPt4
_symmetry_space_group_name_H-M   'P 1'
_cell_length_a   8.72149103
_cell_length_b   8.72149104
_cell_length_c   8.72149147
_cell_angle_alpha   60.00000219
_cell_angle_beta   60.00000218
_cell_angle_gamma   60.00000148
_symmetry_Int_Tables_number   1
_chemical_formula_structural   Mg8BPt4
_chemical_formula_sum   'Mg16 B2 Pt8'
_cell_volume   469.09117121
_cell_formula_units_Z   2
loop_
 _symmetry_equiv_pos_site_id
 _symmetry_equiv_pos_as_xyz
  1  'x, y, z'
loop_
 _atom_site_type_symbol
 _atom_site_label
 _atom_site_symmetry_multiplicity
 _atom_site_fract_x
 _atom_site_fract_y
 _atom_site_fract_z
 _atom_site_occupancy
  Mg  Mg0  1  0.67514616  0.67514616  0.07485384  1
  Mg  Mg1  1  0.67514616  0.07485384  0.07485384  1
  Mg  Mg2  1  0.92514616  0.92514616  0.32485384  1
  Mg  Mg3  1  0.50000000  0.50000000  0.50000000  1
  Mg  Mg4  1  0.92514616  0.32485384  0.92514616  1
  Mg  Mg5  1  0.32485384  0.92514616  0.92514616  1
  Mg  Mg6  1  0.32485384  0.32485384  0.92514616  1
  Mg  Mg7  1  0.07485384  0.67514616  0.07485384  1
  Mg  Mg8  1  0.50000000  0.50000000  0.00000000  1
  Mg  Mg9  1  0.67514616  0.07485384  0.67514616  1
  Mg  Mg10  1  0.07485384  0.67514616  0.67514616  1
  Mg  Mg11  1  0.32485384  0.92514616  0.32485384  1
  Mg  Mg12  1  0.50000000  0.00000000  0.50000000  1
  Mg  Mg13  1  0.92514616  0.32485384  0.32485384  1
  Mg  Mg14  1  0.00000000  0.50000000  0.50000000  1
  Mg  Mg15  1  0.07485384  0.07485384  0.67514616  1
  B  B16  1  0.37500000  0.37500000  0.37500000  1
  B  B17  1  0.62500000  0.62500000  0.62500000  1
  Pt  Pt18  1  0.72425504  0.72425504  0.72425504  1
  Pt  Pt19  1  0.72425504  0.32723487  0.72425504  1
  Pt  Pt20  1  0.32723487  0.72425504  0.72425504  1
  Pt  Pt21  1  0.67276513  0.27574496  0.27574496  1
  Pt  Pt22  1  0.27574496  0.27574496  0.27574496  1
  Pt  Pt23  1  0.27574496  0.27574496  0.67276513  1
  Pt  Pt24  1  0.27574496  0.67276513  0.27574496  1
  Pt  Pt25  1  0.72425504  0.72425504  0.32723487  1
