# generated using pymatgen
data_Pr7CoI12
_symmetry_space_group_name_H-M   'P 1'
_cell_length_a   10.04951296
_cell_length_b   10.04951277
_cell_length_c   10.04951332
_cell_angle_alpha   107.08823537
_cell_angle_beta   107.08823509
_cell_angle_gamma   107.08823484
_symmetry_Int_Tables_number   1
_chemical_formula_structural   Pr7CoI12
_chemical_formula_sum   'Pr7 Co1 I12'
_cell_volume   843.19866642
_cell_formula_units_Z   1
loop_
 _symmetry_equiv_pos_site_id
 _symmetry_equiv_pos_as_xyz
  1  'x, y, z'
loop_
 _atom_site_type_symbol
 _atom_site_label
 _atom_site_symmetry_multiplicity
 _atom_site_fract_x
 _atom_site_fract_y
 _atom_site_fract_z
 _atom_site_occupancy
  Pr  Pr0  1  0.09802093  0.29907001  0.02688440  1
  Pr  Pr1  1  0.90197907  0.70092999  0.97311560  1
  Pr  Pr2  1  0.70092999  0.97311560  0.90197907  1
  Pr  Pr3  1  0.97311560  0.90197907  0.70092999  1
  Pr  Pr4  1  0.50000000  0.50000000  0.50000000  1
  Pr  Pr5  1  0.29907001  0.02688440  0.09802093  1
  Pr  Pr6  1  0.02688440  0.09802093  0.29907001  1
  Co  Co7  1  0.00000000  0.00000000  0.00000000  1
  I  I8  1  0.38933759  0.15817680  0.46910789  1
  I  I9  1  0.61066241  0.84182320  0.53089211  1
  I  I10  1  0.07467049  0.22778274  0.68234608  1
  I  I11  1  0.84182320  0.53089211  0.61066241  1
  I  I12  1  0.22778274  0.68234608  0.07467049  1
  I  I13  1  0.92532951  0.77221726  0.31765392  1
  I  I14  1  0.77221726  0.31765392  0.92532951  1
  I  I15  1  0.68234608  0.07467049  0.22778274  1
  I  I16  1  0.31765392  0.92532951  0.77221726  1
  I  I17  1  0.46910789  0.38933759  0.15817680  1
  I  I18  1  0.53089211  0.61066241  0.84182320  1
  I  I19  1  0.15817680  0.46910789  0.38933759  1
