# generated using pymatgen
data_Mg44Ir7
_symmetry_space_group_name_H-M   'P 1'
_cell_length_a   14.21168470
_cell_length_b   14.21168429
_cell_length_c   14.21168483
_cell_angle_alpha   60.00000109
_cell_angle_beta   60.00000206
_cell_angle_gamma   60.00000040
_symmetry_Int_Tables_number   1
_chemical_formula_structural   Mg44Ir7
_chemical_formula_sum   'Mg88 Ir14'
_cell_volume   2029.65253883
_cell_formula_units_Z   2
loop_
 _symmetry_equiv_pos_site_id
 _symmetry_equiv_pos_as_xyz
  1  'x, y, z'
loop_
 _atom_site_type_symbol
 _atom_site_label
 _atom_site_symmetry_multiplicity
 _atom_site_fract_x
 _atom_site_fract_y
 _atom_site_fract_z
 _atom_site_occupancy
  Mg  Mg0  1  0.48018217  0.48018217  0.90777074  1
  Mg  Mg1  1  0.55744906  0.33829039  0.76597016  1
  Mg  Mg2  1  0.14416972  0.14416972  0.35583028  1
  Mg  Mg3  1  0.21551247  0.56907095  0.99990412  1
  Mg  Mg4  1  0.33829039  0.55744906  0.33829039  1
  Mg  Mg5  1  0.48018217  0.13186492  0.90777074  1
  Mg  Mg6  1  0.33829039  0.33829039  0.76597016  1
  Mg  Mg7  1  0.76597016  0.33829039  0.33829039  1
  Mg  Mg8  1  0.56173914  0.56173914  0.56173914  1
  Mg  Mg9  1  0.71942410  0.47491087  0.71942410  1
  Mg  Mg10  1  0.94810701  0.15567898  0.94810701  1
  Mg  Mg11  1  0.81955128  0.81955128  0.18044872  1
  Mg  Mg12  1  0.91075781  0.69641406  0.69641406  1
  Mg  Mg13  1  0.13186492  0.90777074  0.48018217  1
  Mg  Mg14  1  0.76597016  0.55744906  0.33829039  1
  Mg  Mg15  1  0.33459689  0.97957237  0.70625837  1
  Mg  Mg16  1  0.47491087  0.71942410  0.71942410  1
  Mg  Mg17  1  0.33829039  0.76597016  0.33829039  1
  Mg  Mg18  1  0.90777074  0.13186492  0.48018217  1
  Mg  Mg19  1  0.70625837  0.97957237  0.97957237  1
  Mg  Mg20  1  0.21551247  0.21551247  0.99990412  1
  Mg  Mg21  1  0.31478258  0.56173914  0.56173914  1
  Mg  Mg22  1  0.15567898  0.94810701  0.94810701  1
  Mg  Mg23  1  0.48018217  0.90777074  0.13186492  1
  Mg  Mg24  1  0.81955128  0.18044872  0.81955128  1
  Mg  Mg25  1  0.76597016  0.33829039  0.55744906  1
  Mg  Mg26  1  0.94810701  0.94810701  0.94810701  1
  Mg  Mg27  1  0.56173914  0.31478258  0.56173914  1
  Mg  Mg28  1  0.90777074  0.48018217  0.13186492  1
  Mg  Mg29  1  0.13186492  0.48018217  0.48018217  1
  Mg  Mg30  1  0.33829039  0.76597016  0.55744906  1
  Mg  Mg31  1  0.97957237  0.70625837  0.97957237  1
  Mg  Mg32  1  0.56173914  0.56173914  0.31478258  1
  Mg  Mg33  1  0.70625837  0.97957237  0.33459689  1
  Mg  Mg34  1  0.33459689  0.97957237  0.97957237  1
  Mg  Mg35  1  0.50153235  0.83282255  0.83282255  1
  Mg  Mg36  1  0.21551247  0.56907095  0.21551247  1
  Mg  Mg37  1  0.56907095  0.99990412  0.21551247  1
  Mg  Mg38  1  0.99990412  0.21551247  0.21551247  1
  Mg  Mg39  1  0.69641406  0.69641406  0.69641406  1
  Mg  Mg40  1  0.21551247  0.99990412  0.56907095  1
  Mg  Mg41  1  0.71942410  0.71942410  0.47491087  1
  Mg  Mg42  1  0.18044872  0.18044872  0.81955128  1
  Mg  Mg43  1  0.14416972  0.35583028  0.35583028  1
  Mg  Mg44  1  0.56907095  0.21551247  0.99990412  1
  Mg  Mg45  1  0.18044872  0.81955128  0.81955128  1
  Mg  Mg46  1  0.83282255  0.50153235  0.83282255  1
  Mg  Mg47  1  0.35583028  0.14416972  0.14416972  1
  Mg  Mg48  1  0.69641406  0.69641406  0.91075781  1
  Mg  Mg49  1  0.71942410  0.08624094  0.71942410  1
  Mg  Mg50  1  0.21551247  0.21551247  0.56907095  1
  Mg  Mg51  1  0.48018217  0.13186492  0.48018217  1
  Mg  Mg52  1  0.83282255  0.83282255  0.83282255  1
  Mg  Mg53  1  0.70625837  0.33459689  0.97957237  1
  Mg  Mg54  1  0.97957237  0.33459689  0.70625837  1
  Mg  Mg55  1  0.47491087  0.71942410  0.08624094  1
  Mg  Mg56  1  0.18044872  0.81955128  0.18044872  1
  Mg  Mg57  1  0.97957237  0.33459689  0.97957237  1
  Mg  Mg58  1  0.33829039  0.33829039  0.55744906  1
  Mg  Mg59  1  0.33459689  0.70625837  0.97957237  1
  Mg  Mg60  1  0.97957237  0.70625837  0.33459689  1
  Mg  Mg61  1  0.71942410  0.71942410  0.08624094  1
  Mg  Mg62  1  0.13186492  0.48018217  0.90777074  1
  Mg  Mg63  1  0.35583028  0.35583028  0.14416972  1
  Mg  Mg64  1  0.48018217  0.48018217  0.13186492  1
  Mg  Mg65  1  0.71942410  0.47491087  0.08624094  1
  Mg  Mg66  1  0.08624094  0.47491087  0.71942410  1
  Mg  Mg67  1  0.08624094  0.71942410  0.47491087  1
  Mg  Mg68  1  0.47491087  0.08624094  0.71942410  1
  Mg  Mg69  1  0.83282255  0.83282255  0.50153235  1
  Mg  Mg70  1  0.97957237  0.97957237  0.33459689  1
  Mg  Mg71  1  0.55744906  0.76597016  0.33829039  1
  Mg  Mg72  1  0.97957237  0.97957237  0.70625837  1
  Mg  Mg73  1  0.14416972  0.35583028  0.14416972  1
  Mg  Mg74  1  0.21551247  0.99990412  0.21551247  1
  Mg  Mg75  1  0.99990412  0.56907095  0.21551247  1
  Mg  Mg76  1  0.35583028  0.14416972  0.35583028  1
  Mg  Mg77  1  0.81955128  0.18044872  0.18044872  1
  Mg  Mg78  1  0.94810701  0.94810701  0.15567898  1
  Mg  Mg79  1  0.56907095  0.21551247  0.21551247  1
  Mg  Mg80  1  0.71942410  0.08624094  0.47491087  1
  Mg  Mg81  1  0.90777074  0.48018217  0.48018217  1
  Mg  Mg82  1  0.33829039  0.55744906  0.76597016  1
  Mg  Mg83  1  0.08624094  0.71942410  0.71942410  1
  Mg  Mg84  1  0.55744906  0.33829039  0.33829039  1
  Mg  Mg85  1  0.48018217  0.90777074  0.48018217  1
  Mg  Mg86  1  0.99990412  0.21551247  0.56907095  1
  Mg  Mg87  1  0.69641406  0.91075781  0.69641406  1
  Ir  Ir88  1  0.58632720  0.91367280  0.58632720  1
  Ir  Ir89  1  0.75043508  0.08318831  0.08318831  1
  Ir  Ir90  1  0.34884831  0.34884831  0.95345506  1
  Ir  Ir91  1  0.34884831  0.34884831  0.34884831  1
  Ir  Ir92  1  0.08318831  0.08318831  0.75043508  1
  Ir  Ir93  1  0.08318831  0.75043508  0.08318831  1
  Ir  Ir94  1  0.08318831  0.08318831  0.08318831  1
  Ir  Ir95  1  0.91367280  0.58632720  0.58632720  1
  Ir  Ir96  1  0.91367280  0.58632720  0.91367280  1
  Ir  Ir97  1  0.95345506  0.34884831  0.34884831  1
  Ir  Ir98  1  0.34884831  0.95345506  0.34884831  1
  Ir  Ir99  1  0.58632720  0.91367280  0.91367280  1
  Ir  Ir100  1  0.58632720  0.58632720  0.91367280  1
  Ir  Ir101  1  0.91367280  0.91367280  0.58632720  1
