# generated using pymatgen
data_Ga(BiCl)4
_symmetry_space_group_name_H-M   'P 1'
_cell_length_a   18.29661311
_cell_length_b   18.29661295
_cell_length_c   13.49375612
_cell_angle_alpha   90.00000000
_cell_angle_beta   90.00000000
_cell_angle_gamma   120.00000029
_symmetry_Int_Tables_number   1
_chemical_formula_structural   Ga(BiCl)4
_chemical_formula_sum   'Ga12 Bi48 Cl48'
_cell_volume   3912.05446917
_cell_formula_units_Z   12
loop_
 _symmetry_equiv_pos_site_id
 _symmetry_equiv_pos_as_xyz
  1  'x, y, z'
loop_
 _atom_site_type_symbol
 _atom_site_label
 _atom_site_symmetry_multiplicity
 _atom_site_fract_x
 _atom_site_fract_y
 _atom_site_fract_z
 _atom_site_occupancy
  Ga  Ga0  1  0.66666700  0.33333300  0.73217422  1
  Ga  Ga1  1  0.33333300  0.66666700  0.23217422  1
  Ga  Ga2  1  0.66666700  0.33333300  0.19929922  1
  Ga  Ga3  1  0.63946363  0.69471603  0.00764204  1
  Ga  Ga4  1  0.36053637  0.30528397  0.50764204  1
  Ga  Ga5  1  0.30528397  0.94474760  0.00764204  1
  Ga  Ga6  1  0.00000000  0.00000000  0.29142091  1
  Ga  Ga7  1  0.00000000  0.00000000  0.79142091  1
  Ga  Ga8  1  0.94474760  0.63946363  0.50764204  1
  Ga  Ga9  1  0.33333300  0.66666700  0.69929922  1
  Ga  Ga10  1  0.69471603  0.05525240  0.50764204  1
  Ga  Ga11  1  0.05525240  0.36053637  0.00764204  1
  Bi  Bi12  1  0.62601556  0.76910966  0.64939787  1
  Bi  Bi13  1  0.63217566  0.77737603  0.42078063  1
  Bi  Bi14  1  0.95667706  0.53897539  0.91012386  1
  Bi  Bi15  1  0.85479962  0.63217566  0.92078063  1
  Bi  Bi16  1  0.76910966  0.14309411  0.14939787  1
  Bi  Bi17  1  0.46102461  0.41770167  0.91012386  1
  Bi  Bi18  1  0.36782434  0.22262397  0.92078063  1
  Bi  Bi19  1  0.33606681  0.46103654  0.02603597  1
  Bi  Bi20  1  0.26425387  0.31524237  0.87215435  1
  Bi  Bi21  1  0.23089034  0.85690589  0.64939787  1
  Bi  Bi22  1  0.27275581  0.32705109  0.19218513  1
  Bi  Bi23  1  0.95808574  0.53206447  0.13997933  1
  Bi  Bi24  1  0.22262397  0.85479962  0.42078063  1
  Bi  Bi25  1  0.12496973  0.66393319  0.02603597  1
  Bi  Bi26  1  0.53896346  0.87503027  0.02603597  1
  Bi  Bi27  1  0.01970221  0.20138527  0.53906647  1
  Bi  Bi28  1  0.14309411  0.37398444  0.64939787  1
  Bi  Bi29  1  0.42602127  0.95808574  0.63997933  1
  Bi  Bi30  1  0.53897539  0.58229833  0.41012386  1
  Bi  Bi31  1  0.05429528  0.72724419  0.19218513  1
  Bi  Bi32  1  0.72724419  0.67294891  0.69218513  1
  Bi  Bi33  1  0.68475763  0.94901150  0.87215435  1
  Bi  Bi34  1  0.58229833  0.04332294  0.91012386  1
  Bi  Bi35  1  0.31524237  0.05098850  0.37215435  1
  Bi  Bi36  1  0.94901150  0.26425387  0.37215435  1
  Bi  Bi37  1  0.81831694  0.01970221  0.03906647  1
  Bi  Bi38  1  0.98029779  0.79861473  0.03906647  1
  Bi  Bi39  1  0.67294891  0.94570472  0.19218513  1
  Bi  Bi40  1  0.04191426  0.46793553  0.63997933  1
  Bi  Bi41  1  0.85690589  0.62601556  0.14939787  1
  Bi  Bi42  1  0.14520038  0.36782434  0.42078063  1
  Bi  Bi43  1  0.57397873  0.04191426  0.13997933  1
  Bi  Bi44  1  0.46103654  0.12496973  0.52603597  1
  Bi  Bi45  1  0.05098850  0.73574613  0.87215435  1
  Bi  Bi46  1  0.87503027  0.33606681  0.52603597  1
  Bi  Bi47  1  0.41770167  0.95667706  0.41012386  1
  Bi  Bi48  1  0.77737603  0.14520038  0.92078063  1
  Bi  Bi49  1  0.46793553  0.42602127  0.13997933  1
  Bi  Bi50  1  0.04332294  0.46102461  0.41012386  1
  Bi  Bi51  1  0.20138527  0.18168306  0.03906647  1
  Bi  Bi52  1  0.94570472  0.27275581  0.69218513  1
  Bi  Bi53  1  0.53206447  0.57397873  0.63997933  1
  Bi  Bi54  1  0.37398444  0.23089034  0.14939787  1
  Bi  Bi55  1  0.79861473  0.81831694  0.53906647  1
  Bi  Bi56  1  0.66393319  0.53896346  0.52603597  1
  Bi  Bi57  1  0.73574613  0.68475763  0.37215435  1
  Bi  Bi58  1  0.32705109  0.05429528  0.69218513  1
  Bi  Bi59  1  0.18168306  0.98029779  0.53906647  1
  Cl  Cl60  1  0.86842921  0.54371364  0.39623865  1
  Cl  Cl61  1  0.07261405  0.65329920  0.51643053  1
  Cl  Cl62  1  0.78394334  0.33900026  0.25381056  1
  Cl  Cl63  1  0.54371364  0.67528443  0.89623865  1
  Cl  Cl64  1  0.66099974  0.44494308  0.25381056  1
  Cl  Cl65  1  0.55593714  0.21555240  0.78615289  1
  Cl  Cl66  1  0.76310627  0.80063668  0.96565179  1
  Cl  Cl67  1  0.78444760  0.34038474  0.78615289  1
  Cl  Cl68  1  0.19936332  0.96246959  0.96565179  1
  Cl  Cl69  1  0.45628636  0.32471557  0.39623865  1
  Cl  Cl70  1  0.11684736  0.40531232  0.15262924  1
  Cl  Cl71  1  0.33333300  0.66666700  0.06903788  1
  Cl  Cl72  1  0.92738595  0.34670080  0.01643053  1
  Cl  Cl73  1  0.65961526  0.44406286  0.78615289  1
  Cl  Cl74  1  0.32471557  0.86842921  0.89623865  1
  Cl  Cl75  1  0.67528443  0.13157079  0.39623865  1
  Cl  Cl76  1  0.03753041  0.23689373  0.96565179  1
  Cl  Cl77  1  0.21605666  0.66099974  0.75381056  1
  Cl  Cl78  1  0.23689373  0.19936332  0.46565179  1
  Cl  Cl79  1  0.41931485  0.07261405  0.01643053  1
  Cl  Cl80  1  0.33900026  0.55505692  0.75381056  1
  Cl  Cl81  1  0.44406286  0.78444760  0.28615289  1
  Cl  Cl82  1  0.12319536  0.10143133  0.73734318  1
  Cl  Cl83  1  0.13157079  0.45628636  0.89623865  1
  Cl  Cl84  1  0.58068515  0.92738595  0.51643053  1
  Cl  Cl85  1  0.55505692  0.21605666  0.25381056  1
  Cl  Cl86  1  0.65329920  0.58068515  0.01643053  1
  Cl  Cl87  1  0.87680464  0.89856867  0.23734318  1
  Cl  Cl88  1  0.97823597  0.87680464  0.73734318  1
  Cl  Cl89  1  0.71153504  0.11684736  0.65262924  1
  Cl  Cl90  1  0.33333300  0.66666700  0.53793879  1
  Cl  Cl91  1  0.80063668  0.03753041  0.46565179  1
  Cl  Cl92  1  0.00000000  0.00000000  0.95558148  1
  Cl  Cl93  1  0.44494308  0.78394334  0.75381056  1
  Cl  Cl94  1  0.00000000  0.00000000  0.45558148  1
  Cl  Cl95  1  0.89856867  0.02176403  0.73734318  1
  Cl  Cl96  1  0.40531232  0.28846496  0.65262924  1
  Cl  Cl97  1  0.34670080  0.41931485  0.51643053  1
  Cl  Cl98  1  0.28846496  0.88315264  0.15262924  1
  Cl  Cl99  1  0.66666700  0.33333300  0.03793879  1
  Cl  Cl100  1  0.02176403  0.12319536  0.23734318  1
  Cl  Cl101  1  0.66666700  0.33333300  0.56903788  1
  Cl  Cl102  1  0.59468768  0.71153504  0.15262924  1
  Cl  Cl103  1  0.96246959  0.76310627  0.46565179  1
  Cl  Cl104  1  0.21555240  0.65961526  0.28615289  1
  Cl  Cl105  1  0.88315264  0.59468768  0.65262924  1
  Cl  Cl106  1  0.34038474  0.55593714  0.28615289  1
  Cl  Cl107  1  0.10143133  0.97823597  0.23734318  1
