# generated using pymatgen
data_Ca3(B3Rh4)2
_symmetry_space_group_name_H-M   'P 1'
_cell_length_a   5.55189440
_cell_length_b   5.63805383
_cell_length_c   9.00537499
_cell_angle_alpha   81.27037819
_cell_angle_beta   72.04593789
_cell_angle_gamma   60.50424808
_symmetry_Int_Tables_number   1
_chemical_formula_structural   Ca3(B3Rh4)2
_chemical_formula_sum   'Ca3 B6 Rh8'
_cell_volume   233.40304556
_cell_formula_units_Z   1
loop_
 _symmetry_equiv_pos_site_id
 _symmetry_equiv_pos_as_xyz
  1  'x, y, z'
loop_
 _atom_site_type_symbol
 _atom_site_label
 _atom_site_symmetry_multiplicity
 _atom_site_fract_x
 _atom_site_fract_y
 _atom_site_fract_z
 _atom_site_occupancy
  Ca  Ca0  1  0.68205948  1.00000000  0.63588105  1
  Ca  Ca1  1  0.31794052  0.00000000  0.36411895  1
  Ca  Ca2  1  0.50000000  0.00000000  0.00000000  1
  B  B3  1  0.33126862  0.67970989  0.65775287  1
  B  B4  1  0.01097851  0.32029011  0.65775287  1
  B  B5  1  0.66873138  0.32029011  0.34224713  1
  B  B6  1  0.98902149  0.67970989  0.34224713  1
  B  B7  1  0.83364276  0.33271449  0.00000000  1
  B  B8  1  0.16635724  0.66728551  1.00000000  1
  Rh  Rh9  1  0.41523623  0.50000000  0.16952754  1
  Rh  Rh10  1  0.08653193  1.00000000  0.82693614  1
  Rh  Rh11  1  0.58476377  0.50000000  0.83047246  1
  Rh  Rh12  1  0.91523623  0.50000000  0.16952754  1
  Rh  Rh13  1  0.08476377  0.50000000  0.83047246  1
  Rh  Rh14  1  0.75000000  0.50000000  0.50000000  1
  Rh  Rh15  1  0.91346807  0.00000000  0.17306386  1
  Rh  Rh16  1  0.25000000  0.50000000  0.50000000  1
