# generated using pymatgen
data_Mo6PbI14
_symmetry_space_group_name_H-M   'P 1'
_cell_length_a   14.85007846
_cell_length_b   14.85007846
_cell_length_c   14.85007846
_cell_angle_alpha   90.00000000
_cell_angle_beta   90.00000000
_cell_angle_gamma   90.00000000
_symmetry_Int_Tables_number   1
_chemical_formula_structural   Mo6PbI14
_chemical_formula_sum   'Mo24 Pb4 I56'
_cell_volume   3274.81103186
_cell_formula_units_Z   4
loop_
 _symmetry_equiv_pos_site_id
 _symmetry_equiv_pos_as_xyz
  1  'x, y, z'
loop_
 _atom_site_type_symbol
 _atom_site_label
 _atom_site_symmetry_multiplicity
 _atom_site_fract_x
 _atom_site_fract_y
 _atom_site_fract_z
 _atom_site_occupancy
  Mo  Mo0  1  0.03164303  0.12176760  0.97484352  1
  Mo  Mo1  1  0.97484352  0.03164303  0.12176760  1
  Mo  Mo2  1  0.87823240  0.47484352  0.53164303  1
  Mo  Mo3  1  0.52515648  0.46835697  0.12176760  1
  Mo  Mo4  1  0.02515648  0.53164303  0.62176760  1
  Mo  Mo5  1  0.62176760  0.02515648  0.53164303  1
  Mo  Mo6  1  0.02515648  0.96835697  0.87823240  1
  Mo  Mo7  1  0.47484352  0.96835697  0.62176760  1
  Mo  Mo8  1  0.53164303  0.62176760  0.02515648  1
  Mo  Mo9  1  0.53164303  0.87823240  0.47484352  1
  Mo  Mo10  1  0.62176760  0.47484352  0.96835697  1
  Mo  Mo11  1  0.47484352  0.53164303  0.87823240  1
  Mo  Mo12  1  0.12176760  0.97484352  0.03164303  1
  Mo  Mo13  1  0.96835697  0.87823240  0.02515648  1
  Mo  Mo14  1  0.96835697  0.62176760  0.47484352  1
  Mo  Mo15  1  0.12176760  0.52515648  0.46835697  1
  Mo  Mo16  1  0.37823240  0.52515648  0.03164303  1
  Mo  Mo17  1  0.46835697  0.37823240  0.97484352  1
  Mo  Mo18  1  0.37823240  0.97484352  0.46835697  1
  Mo  Mo19  1  0.87823240  0.02515648  0.96835697  1
  Mo  Mo20  1  0.52515648  0.03164303  0.37823240  1
  Mo  Mo21  1  0.46835697  0.12176760  0.52515648  1
  Mo  Mo22  1  0.97484352  0.46835697  0.37823240  1
  Mo  Mo23  1  0.03164303  0.37823240  0.52515648  1
  Pb  Pb24  1  0.00000000  0.00000000  0.50000000  1
  Pb  Pb25  1  0.50000000  0.50000000  0.50000000  1
  Pb  Pb26  1  0.50000000  0.00000000  0.00000000  1
  Pb  Pb27  1  0.00000000  0.50000000  0.00000000  1
  I  I28  1  0.38082430  0.81496181  0.56684899  1
  I  I29  1  0.30598029  0.93197111  0.08293449  1
  I  I30  1  0.88082430  0.18503819  0.06684899  1
  I  I31  1  0.61917570  0.18503819  0.43315101  1
  I  I32  1  0.68503819  0.93315101  0.38082430  1
  I  I33  1  0.43315101  0.61917570  0.18503819  1
  I  I34  1  0.36668380  0.13331620  0.36668380  1
  I  I35  1  0.58293449  0.69401971  0.43197111  1
  I  I36  1  0.56684899  0.11917570  0.68503819  1
  I  I37  1  0.93315101  0.11917570  0.81496181  1
  I  I38  1  0.13331620  0.36668380  0.36668380  1
  I  I39  1  0.43197111  0.58293449  0.69401971  1
  I  I40  1  0.11917570  0.68503819  0.56684899  1
  I  I41  1  0.18503819  0.43315101  0.61917570  1
  I  I42  1  0.91706551  0.69401971  0.06802889  1
  I  I43  1  0.80598029  0.06802889  0.58293449  1
  I  I44  1  0.56802889  0.08293449  0.19401971  1
  I  I45  1  0.63331620  0.63331620  0.86668380  1
  I  I46  1  0.80598029  0.43197111  0.91706551  1
  I  I47  1  0.69401971  0.43197111  0.58293449  1
  I  I48  1  0.36668380  0.36668380  0.13331620  1
  I  I49  1  0.86668380  0.63331620  0.63331620  1
  I  I50  1  0.19401971  0.56802889  0.08293449  1
  I  I51  1  0.63331620  0.86668380  0.63331620  1
  I  I52  1  0.11917570  0.81496181  0.93315101  1
  I  I53  1  0.88082430  0.31496181  0.43315101  1
  I  I54  1  0.19401971  0.93197111  0.41706551  1
  I  I55  1  0.31496181  0.06684899  0.61917570  1
  I  I56  1  0.43315101  0.88082430  0.31496181  1
  I  I57  1  0.93197111  0.08293449  0.30598029  1
  I  I58  1  0.58293449  0.80598029  0.06802889  1
  I  I59  1  0.13331620  0.13331620  0.13331620  1
  I  I60  1  0.06684899  0.61917570  0.31496181  1
  I  I61  1  0.86668380  0.86668380  0.86668380  1
  I  I62  1  0.30598029  0.56802889  0.41706551  1
  I  I63  1  0.56684899  0.38082430  0.81496181  1
  I  I64  1  0.18503819  0.06684899  0.88082430  1
  I  I65  1  0.43197111  0.91706551  0.80598029  1
  I  I66  1  0.08293449  0.30598029  0.93197111  1
  I  I67  1  0.31496181  0.43315101  0.88082430  1
  I  I68  1  0.69401971  0.06802889  0.91706551  1
  I  I69  1  0.91706551  0.80598029  0.43197111  1
  I  I70  1  0.06684899  0.88082430  0.18503819  1
  I  I71  1  0.06802889  0.91706551  0.69401971  1
  I  I72  1  0.81496181  0.56684899  0.38082430  1
  I  I73  1  0.41706551  0.30598029  0.56802889  1
  I  I74  1  0.56802889  0.41706551  0.30598029  1
  I  I75  1  0.38082430  0.68503819  0.93315101  1
  I  I76  1  0.06802889  0.58293449  0.80598029  1
  I  I77  1  0.93197111  0.41706551  0.19401971  1
  I  I78  1  0.68503819  0.56684899  0.11917570  1
  I  I79  1  0.08293449  0.19401971  0.56802889  1
  I  I80  1  0.81496181  0.93315101  0.11917570  1
  I  I81  1  0.61917570  0.31496181  0.06684899  1
  I  I82  1  0.41706551  0.19401971  0.93197111  1
  I  I83  1  0.93315101  0.38082430  0.68503819  1
