# generated using pymatgen
data_Na2Be2O3
_symmetry_space_group_name_H-M   'P 1'
_cell_length_a   6.27976488
_cell_length_b   7.26879776
_cell_length_c   5.75444983
_cell_angle_alpha   90.00000000
_cell_angle_beta   131.54081174
_cell_angle_gamma   90.00000000
_symmetry_Int_Tables_number   1
_chemical_formula_structural   Na2Be2O3
_chemical_formula_sum   'Na4 Be4 O6'
_cell_volume   196.60385802
_cell_formula_units_Z   2
loop_
 _symmetry_equiv_pos_site_id
 _symmetry_equiv_pos_as_xyz
  1  'x, y, z'
loop_
 _atom_site_type_symbol
 _atom_site_label
 _atom_site_symmetry_multiplicity
 _atom_site_fract_x
 _atom_site_fract_y
 _atom_site_fract_z
 _atom_site_occupancy
  Na  Na0  1  0.27771927  0.36005638  0.39060080  1
  Na  Na1  1  0.72228073  0.86005638  0.10939920  1
  Na  Na2  1  0.27771927  0.13994362  0.89060080  1
  Na  Na3  1  0.72228073  0.63994362  0.60939920  1
  Be  Be4  1  0.29566156  0.51720400  0.80843150  1
  Be  Be5  1  0.29566156  0.98279600  0.30843150  1
  Be  Be6  1  0.70433844  0.01720400  0.69156850  1
  Be  Be7  1  0.70433844  0.48279600  0.19156850  1
  O  O8  1  0.00000000  0.50000000  0.50000000  1
  O  O9  1  0.00000000  0.00000000  0.00000000  1
  O  O10  1  0.42543442  0.06191750  0.63369817  1
  O  O11  1  0.57456558  0.56191750  0.86630183  1
  O  O12  1  0.42543442  0.43808250  0.13369817  1
  O  O13  1  0.57456558  0.93808250  0.36630183  1
