# generated using pymatgen
data_NpAl2Pd5
_symmetry_space_group_name_H-M   'P 1'
_cell_length_a   4.17784180
_cell_length_b   4.17784125
_cell_length_c   8.07613494
_cell_angle_alpha   104.99018697
_cell_angle_beta   104.99018490
_cell_angle_gamma   90.00000051
_symmetry_Int_Tables_number   1
_chemical_formula_structural   NpAl2Pd5
_chemical_formula_sum   'Np1 Al2 Pd5'
_cell_volume   131.19453317
_cell_formula_units_Z   1
loop_
 _symmetry_equiv_pos_site_id
 _symmetry_equiv_pos_as_xyz
  1  'x, y, z'
loop_
 _atom_site_type_symbol
 _atom_site_label
 _atom_site_symmetry_multiplicity
 _atom_site_fract_x
 _atom_site_fract_y
 _atom_site_fract_z
 _atom_site_occupancy
  Np  Np0  1  0.00000000  0.00000000  0.00000000  1
  Al  Al1  1  0.74664244  0.74664244  0.49328488  1
  Al  Al2  1  0.25335756  0.25335756  0.50671512  1
  Pd  Pd3  1  0.85452264  0.35452264  0.70904527  1
  Pd  Pd4  1  0.64547736  0.14547736  0.29095473  1
  Pd  Pd5  1  0.35452264  0.85452264  0.70904527  1
  Pd  Pd6  1  0.14547736  0.64547736  0.29095473  1
  Pd  Pd7  1  0.50000000  0.50000000  0.00000000  1
