# generated using pymatgen
data_LiCa10MgSb9
_symmetry_space_group_name_H-M   'P 1'
_cell_length_a   11.96409933
_cell_length_b   11.96409933
_cell_length_c   17.18480849
_cell_angle_alpha   90.00000000
_cell_angle_beta   90.00000000
_cell_angle_gamma   90.00000000
_symmetry_Int_Tables_number   1
_chemical_formula_structural   LiCa10MgSb9
_chemical_formula_sum   'Li4 Ca40 Mg4 Sb36'
_cell_volume   2459.82786401
_cell_formula_units_Z   4
loop_
 _symmetry_equiv_pos_site_id
 _symmetry_equiv_pos_as_xyz
  1  'x, y, z'
loop_
 _atom_site_type_symbol
 _atom_site_label
 _atom_site_symmetry_multiplicity
 _atom_site_fract_x
 _atom_site_fract_y
 _atom_site_fract_z
 _atom_site_occupancy
  Li  Li0  1  0.77777227  0.22222773  0.50000000  1
  Li  Li1  1  0.22222773  0.77777227  0.50000000  1
  Li  Li2  1  0.72222773  0.72222773  0.00000000  1
  Li  Li3  1  0.27777227  0.27777227  0.00000000  1
  Ca  Ca4  1  0.48510286  0.83816767  0.10299535  1
  Ca  Ca5  1  0.51489714  0.16183233  0.89700465  1
  Ca  Ca6  1  0.24841980  0.51173526  0.68989790  1
  Ca  Ca7  1  0.00000000  0.00000000  0.64364489  1
  Ca  Ca8  1  0.75158020  0.48826474  0.31010210  1
  Ca  Ca9  1  0.48826474  0.75158020  0.68989790  1
  Ca  Ca10  1  0.01489714  0.33816767  0.39700465  1
  Ca  Ca11  1  0.16183233  0.51489714  0.89700465  1
  Ca  Ca12  1  0.01173526  0.25158020  0.18989790  1
  Ca  Ca13  1  0.33816767  0.01489714  0.60299535  1
  Ca  Ca14  1  0.51173526  0.24841980  0.68989790  1
  Ca  Ca15  1  0.74841980  0.98826474  0.81010210  1
  Ca  Ca16  1  0.83816767  0.48510286  0.10299535  1
  Ca  Ca17  1  0.98826474  0.74841980  0.81010210  1
  Ca  Ca18  1  0.66183233  0.98510286  0.39700465  1
  Ca  Ca19  1  0.33816767  0.01489714  0.39700465  1
  Ca  Ca20  1  0.50000000  0.50000000  0.85635511  1
  Ca  Ca21  1  0.75158020  0.48826474  0.68989790  1
  Ca  Ca22  1  0.98510286  0.66183233  0.39700465  1
  Ca  Ca23  1  0.01489714  0.33816767  0.60299535  1
  Ca  Ca24  1  0.24841980  0.51173526  0.31010210  1
  Ca  Ca25  1  0.81833374  0.18166626  0.00000000  1
  Ca  Ca26  1  0.51173526  0.24841980  0.31010210  1
  Ca  Ca27  1  0.83816767  0.48510286  0.89700465  1
  Ca  Ca28  1  0.50000000  0.50000000  0.14364489  1
  Ca  Ca29  1  0.98510286  0.66183233  0.60299535  1
  Ca  Ca30  1  0.74841980  0.98826474  0.18989790  1
  Ca  Ca31  1  0.48826474  0.75158020  0.31010210  1
  Ca  Ca32  1  0.98826474  0.74841980  0.18989790  1
  Ca  Ca33  1  0.68166626  0.68166626  0.50000000  1
  Ca  Ca34  1  0.25158020  0.01173526  0.18989790  1
  Ca  Ca35  1  0.66183233  0.98510286  0.60299535  1
  Ca  Ca36  1  0.01173526  0.25158020  0.81010210  1
  Ca  Ca37  1  0.31833374  0.31833374  0.50000000  1
  Ca  Ca38  1  0.51489714  0.16183233  0.10299535  1
  Ca  Ca39  1  0.00000000  0.00000000  0.35635511  1
  Ca  Ca40  1  0.25158020  0.01173526  0.81010210  1
  Ca  Ca41  1  0.48510286  0.83816767  0.89700465  1
  Ca  Ca42  1  0.16183233  0.51489714  0.10299535  1
  Ca  Ca43  1  0.18166626  0.81833374  0.00000000  1
  Mg  Mg44  1  0.10241208  0.10241208  0.00000000  1
  Mg  Mg45  1  0.39758792  0.60241208  0.50000000  1
  Mg  Mg46  1  0.60241208  0.39758792  0.50000000  1
  Mg  Mg47  1  0.89758792  0.89758792  0.00000000  1
  Sb  Sb48  1  0.22353885  0.22353885  0.31937344  1
  Sb  Sb49  1  0.37083685  0.62916315  0.00000000  1
  Sb  Sb50  1  0.18612451  0.81387549  0.67098653  1
  Sb  Sb51  1  0.62916315  0.37083685  0.00000000  1
  Sb  Sb52  1  0.31387549  0.31387549  0.82901347  1
  Sb  Sb53  1  0.33372038  0.03140563  0.00000000  1
  Sb  Sb54  1  0.50000000  0.00000000  0.75000000  1
  Sb  Sb55  1  0.83372038  0.46859437  0.50000000  1
  Sb  Sb56  1  0.31387549  0.31387549  0.17098653  1
  Sb  Sb57  1  0.68612451  0.68612451  0.17098653  1
  Sb  Sb58  1  0.50000000  0.00000000  0.25000000  1
  Sb  Sb59  1  0.72353885  0.27646115  0.81937344  1
  Sb  Sb60  1  0.81387549  0.18612451  0.32901347  1
  Sb  Sb61  1  0.18612451  0.81387549  0.32901347  1
  Sb  Sb62  1  0.87083685  0.87083685  0.50000000  1
  Sb  Sb63  1  0.16627962  0.53140563  0.50000000  1
  Sb  Sb64  1  0.77646115  0.77646115  0.68062656  1
  Sb  Sb65  1  0.81387549  0.18612451  0.67098653  1
  Sb  Sb66  1  0.00000000  0.00000000  0.86546769  1
  Sb  Sb67  1  0.77646115  0.77646115  0.31937344  1
  Sb  Sb68  1  0.50000000  0.50000000  0.36546769  1
  Sb  Sb69  1  0.96859437  0.66627962  0.00000000  1
  Sb  Sb70  1  0.68612451  0.68612451  0.82901347  1
  Sb  Sb71  1  0.50000000  0.50000000  0.63453231  1
  Sb  Sb72  1  0.27646115  0.72353885  0.18062656  1
  Sb  Sb73  1  0.03140563  0.33372038  0.00000000  1
  Sb  Sb74  1  0.53140563  0.16627962  0.50000000  1
  Sb  Sb75  1  0.27646115  0.72353885  0.81937344  1
  Sb  Sb76  1  0.66627962  0.96859437  0.00000000  1
  Sb  Sb77  1  0.46859437  0.83372038  0.50000000  1
  Sb  Sb78  1  0.22353885  0.22353885  0.68062656  1
  Sb  Sb79  1  0.12916315  0.12916315  0.50000000  1
  Sb  Sb80  1  0.72353885  0.27646115  0.18062656  1
  Sb  Sb81  1  0.00000000  0.00000000  0.13453231  1
  Sb  Sb82  1  0.00000000  0.50000000  0.75000000  1
  Sb  Sb83  1  0.00000000  0.50000000  0.25000000  1
