# generated using pymatgen
data_PuNi4
_symmetry_space_group_name_H-M   'P 1'
_cell_length_a   4.87742770
_cell_length_b   4.87282855
_cell_length_c   10.12971306
_cell_angle_alpha   85.37127806
_cell_angle_beta   80.72082064
_cell_angle_gamma   59.96877441
_symmetry_Int_Tables_number   1
_chemical_formula_structural   PuNi4
_chemical_formula_sum   'Pu3 Ni12'
_cell_volume   205.70388095
_cell_formula_units_Z   3
loop_
 _symmetry_equiv_pos_site_id
 _symmetry_equiv_pos_as_xyz
  1  'x, y, z'
loop_
 _atom_site_type_symbol
 _atom_site_label
 _atom_site_symmetry_multiplicity
 _atom_site_fract_x
 _atom_site_fract_y
 _atom_site_fract_z
 _atom_site_occupancy
  Pu  Pu0  1  0.12611024  1.00000000  0.64378816  1
  Pu  Pu1  1  0.00000000  0.00000000  0.00000000  1
  Pu  Pu2  1  0.87388976  0.00000000  0.35621184  1
  Ni  Ni3  1  0.56905446  0.49895251  0.80120671  1
  Ni  Ni4  1  0.06800697  0.50104749  0.80120671  1
  Ni  Ni5  1  0.43094554  0.50104749  0.19879329  1
  Ni  Ni6  1  0.43087677  0.00000000  0.20137678  1
  Ni  Ni7  1  0.93199303  0.49895251  0.19879329  1
  Ni  Ni8  1  0.66516694  0.66966612  1.00000000  1
  Ni  Ni9  1  0.56912323  1.00000000  0.79862322  1
  Ni  Ni10  1  0.19406174  0.34132167  0.40563649  1
  Ni  Ni11  1  0.80593826  0.65867833  0.59436351  1
  Ni  Ni12  1  0.46461660  0.34132167  0.59436351  1
  Ni  Ni13  1  0.53538340  0.65867833  0.40563649  1
  Ni  Ni14  1  0.33483306  0.33033388  0.00000000  1
