# generated using pymatgen
data_Cs3CoI5
_symmetry_space_group_name_H-M   'P 1'
_cell_length_a   10.19380377
_cell_length_b   11.78605510
_cell_length_c   15.06255234
_cell_angle_alpha   90.00000000
_cell_angle_beta   90.00000000
_cell_angle_gamma   90.00000000
_symmetry_Int_Tables_number   1
_chemical_formula_structural   Cs3CoI5
_chemical_formula_sum   'Cs12 Co4 I20'
_cell_volume   1809.68632786
_cell_formula_units_Z   4
loop_
 _symmetry_equiv_pos_site_id
 _symmetry_equiv_pos_as_xyz
  1  'x, y, z'
loop_
 _atom_site_type_symbol
 _atom_site_label
 _atom_site_symmetry_multiplicity
 _atom_site_fract_x
 _atom_site_fract_y
 _atom_site_fract_z
 _atom_site_occupancy
  Cs  Cs0  1  0.58735561  0.75000000  0.04639236  1
  Cs  Cs1  1  0.08241499  0.51582684  0.17266939  1
  Cs  Cs2  1  0.91264439  0.25000000  0.54639236  1
  Cs  Cs3  1  0.08241499  0.98417316  0.17266939  1
  Cs  Cs4  1  0.91758501  0.01582684  0.82733061  1
  Cs  Cs5  1  0.41758501  0.48417316  0.67266939  1
  Cs  Cs6  1  0.08735561  0.75000000  0.45360764  1
  Cs  Cs7  1  0.58241499  0.51582684  0.32733061  1
  Cs  Cs8  1  0.41758501  0.01582684  0.67266939  1
  Cs  Cs9  1  0.41264439  0.25000000  0.95360764  1
  Cs  Cs10  1  0.91758501  0.48417316  0.82733061  1
  Cs  Cs11  1  0.58241499  0.98417316  0.32733061  1
  Co  Co12  1  0.18677701  0.75000000  0.89351276  1
  Co  Co13  1  0.81322299  0.25000000  0.10648724  1
  Co  Co14  1  0.68677701  0.75000000  0.60648724  1
  Co  Co15  1  0.31322299  0.25000000  0.39351276  1
  I  I16  1  0.52757648  0.25000000  0.48629737  1
  I  I17  1  0.69220995  0.43517168  0.06462633  1
  I  I18  1  0.80779005  0.56482832  0.56462633  1
  I  I19  1  0.83311221  0.75000000  0.26272435  1
  I  I20  1  0.19220995  0.43517168  0.43537367  1
  I  I21  1  0.33311221  0.75000000  0.23727565  1
  I  I22  1  0.16688779  0.25000000  0.73727565  1
  I  I23  1  0.30779005  0.56482832  0.93537367  1
  I  I24  1  0.64095669  0.75000000  0.77515130  1
  I  I25  1  0.47242352  0.75000000  0.51370263  1
  I  I26  1  0.97242352  0.75000000  0.98629737  1
  I  I27  1  0.14095669  0.75000000  0.72484870  1
  I  I28  1  0.30779005  0.93517168  0.93537367  1
  I  I29  1  0.69220995  0.06482832  0.06462633  1
  I  I30  1  0.80779005  0.93517168  0.56462633  1
  I  I31  1  0.19220995  0.06482832  0.43537367  1
  I  I32  1  0.02757648  0.25000000  0.01370263  1
  I  I33  1  0.66688779  0.25000000  0.76272435  1
  I  I34  1  0.35904331  0.25000000  0.22484870  1
  I  I35  1  0.85904331  0.25000000  0.27515130  1
