# generated using pymatgen
data_Li5BiS4
_symmetry_space_group_name_H-M   'P 1'
_cell_length_a   9.22690876
_cell_length_b   7.84183714
_cell_length_c   5.78065601
_cell_angle_alpha   90.00000000
_cell_angle_beta   90.00000000
_cell_angle_gamma   90.00000000
_symmetry_Int_Tables_number   1
_chemical_formula_structural   Li5BiS4
_chemical_formula_sum   'Li10 Bi2 S8'
_cell_volume   418.26465954
_cell_formula_units_Z   2
loop_
 _symmetry_equiv_pos_site_id
 _symmetry_equiv_pos_as_xyz
  1  'x, y, z'
loop_
 _atom_site_type_symbol
 _atom_site_label
 _atom_site_symmetry_multiplicity
 _atom_site_fract_x
 _atom_site_fract_y
 _atom_site_fract_z
 _atom_site_occupancy
  Li  Li0  1  0.04799428  0.01315991  0.75827449  1
  Li  Li1  1  0.04799428  0.48684009  0.75827449  1
  Li  Li2  1  0.25000000  0.75000000  0.23280589  1
  Li  Li3  1  0.45200572  0.01315991  0.75827449  1
  Li  Li4  1  0.45200572  0.48684009  0.75827449  1
  Li  Li5  1  0.54799428  0.98684009  0.24172551  1
  Li  Li6  1  0.54799428  0.51315991  0.24172551  1
  Li  Li7  1  0.75000000  0.25000000  0.76719411  1
  Li  Li8  1  0.95200572  0.98684009  0.24172551  1
  Li  Li9  1  0.95200572  0.51315991  0.24172551  1
  Bi  Bi10  1  0.25000000  0.25000000  0.19106341  1
  Bi  Bi11  1  0.75000000  0.75000000  0.80893659  1
  S  S12  1  0.96947202  0.25000000  0.00951273  1
  S  S13  1  0.25000000  0.99959465  0.48326554  1
  S  S14  1  0.25000000  0.50040535  0.48326554  1
  S  S15  1  0.53052798  0.25000000  0.00951273  1
  S  S16  1  0.46947102  0.75000000  0.99048727  1
  S  S17  1  0.75000000  0.00040535  0.51673446  1
  S  S18  1  0.75000000  0.49959465  0.51673446  1
  S  S19  1  0.03052898  0.75000000  0.99048727  1
