# generated using pymatgen
data_Mg3Si8Ir3
_symmetry_space_group_name_H-M   'P 1'
_cell_length_a   8.68085279
_cell_length_b   8.68085248
_cell_length_c   8.68085256
_cell_angle_alpha   59.99999971
_cell_angle_beta   60.00000088
_cell_angle_gamma   60.00000166
_symmetry_Int_Tables_number   1
_chemical_formula_structural   Mg3Si8Ir3
_chemical_formula_sum   'Mg6 Si16 Ir6'
_cell_volume   462.56434872
_cell_formula_units_Z   2
loop_
 _symmetry_equiv_pos_site_id
 _symmetry_equiv_pos_as_xyz
  1  'x, y, z'
loop_
 _atom_site_type_symbol
 _atom_site_label
 _atom_site_symmetry_multiplicity
 _atom_site_fract_x
 _atom_site_fract_y
 _atom_site_fract_z
 _atom_site_occupancy
  Mg  Mg0  1  0.35034118  0.35034118  0.35034118  1
  Mg  Mg1  1  0.35034118  0.94897647  0.35034118  1
  Mg  Mg2  1  0.94897647  0.35034118  0.35034118  1
  Mg  Mg3  1  0.00000000  0.00000000  0.00000000  1
  Mg  Mg4  1  0.35034118  0.35034118  0.94897647  1
  Mg  Mg5  1  0.75000000  0.75000000  0.75000000  1
  Si  Si6  1  0.97052000  0.97052000  0.39014693  1
  Si  Si7  1  0.57408652  0.57408652  0.27774044  1
  Si  Si8  1  0.39014693  0.66881307  0.97052000  1
  Si  Si9  1  0.97052000  0.39014693  0.97052000  1
  Si  Si10  1  0.66881307  0.97052000  0.97052000  1
  Si  Si11  1  0.66881307  0.97052000  0.39014693  1
  Si  Si12  1  0.97052000  0.97052000  0.66881307  1
  Si  Si13  1  0.97052000  0.39014693  0.66881307  1
  Si  Si14  1  0.27774044  0.57408652  0.57408652  1
  Si  Si15  1  0.97052000  0.66881307  0.97052000  1
  Si  Si16  1  0.97052000  0.66881307  0.39014693  1
  Si  Si17  1  0.39014693  0.97052000  0.66881307  1
  Si  Si18  1  0.39014693  0.97052000  0.97052000  1
  Si  Si19  1  0.57408652  0.27774044  0.57408652  1
  Si  Si20  1  0.66881307  0.39014693  0.97052000  1
  Si  Si21  1  0.57408652  0.57408652  0.57408652  1
  Ir  Ir22  1  0.25501184  0.74498816  0.74498816  1
  Ir  Ir23  1  0.25501184  0.74498816  0.25501184  1
  Ir  Ir24  1  0.74498816  0.74498816  0.25501184  1
  Ir  Ir25  1  0.25501184  0.25501184  0.74498816  1
  Ir  Ir26  1  0.74498816  0.25501184  0.74498816  1
  Ir  Ir27  1  0.74498816  0.25501184  0.25501184  1
