# generated using pymatgen
data_Y(BH4)3
_symmetry_space_group_name_H-M   'P 1'
_cell_length_a   10.87267381
_cell_length_b   10.87267381
_cell_length_c   10.87267381
_cell_angle_alpha   90.00000000
_cell_angle_beta   90.00000000
_cell_angle_gamma   90.00000000
_symmetry_Int_Tables_number   1
_chemical_formula_structural   Y(BH4)3
_chemical_formula_sum   'Y8 B24 H96'
_cell_volume   1285.31352346
_cell_formula_units_Z   8
loop_
 _symmetry_equiv_pos_site_id
 _symmetry_equiv_pos_as_xyz
  1  'x, y, z'
loop_
 _atom_site_type_symbol
 _atom_site_label
 _atom_site_symmetry_multiplicity
 _atom_site_fract_x
 _atom_site_fract_y
 _atom_site_fract_z
 _atom_site_occupancy
  Y  Y0  1  0.78307542  0.71692458  0.28307542  1
  Y  Y1  1  0.71692458  0.21692458  0.28307542  1
  Y  Y2  1  0.28307542  0.71692458  0.21692458  1
  Y  Y3  1  0.21692458  0.21692458  0.21692458  1
  Y  Y4  1  0.21692458  0.28307542  0.71692458  1
  Y  Y5  1  0.28307542  0.78307542  0.71692458  1
  Y  Y6  1  0.78307542  0.78307542  0.78307542  1
  Y  Y7  1  0.71692458  0.28307542  0.78307542  1
  B  B8  1  0.25255865  0.03278951  0.69216405  1
  B  B9  1  0.24744135  0.96721049  0.19216405  1
  B  B10  1  0.25255865  0.46721049  0.19216405  1
  B  B11  1  0.46721049  0.30783595  0.75255865  1
  B  B12  1  0.80783595  0.74744135  0.53278951  1
  B  B13  1  0.03278951  0.80783595  0.75255865  1
  B  B14  1  0.74744135  0.96721049  0.30783595  1
  B  B15  1  0.03278951  0.69216405  0.25255865  1
  B  B16  1  0.75255865  0.46721049  0.30783595  1
  B  B17  1  0.96721049  0.30783595  0.74744135  1
  B  B18  1  0.24744135  0.53278951  0.69216405  1
  B  B19  1  0.53278951  0.80783595  0.74744135  1
  B  B20  1  0.69216405  0.24744135  0.53278951  1
  B  B21  1  0.96721049  0.19216405  0.24744135  1
  B  B22  1  0.19216405  0.25255865  0.46721049  1
  B  B23  1  0.74744135  0.53278951  0.80783595  1
  B  B24  1  0.19216405  0.24744135  0.96721049  1
  B  B25  1  0.53278951  0.69216405  0.24744135  1
  B  B26  1  0.30783595  0.74744135  0.96721049  1
  B  B27  1  0.30783595  0.75255865  0.46721049  1
  B  B28  1  0.69216405  0.25255865  0.03278951  1
  B  B29  1  0.46721049  0.19216405  0.25255865  1
  B  B30  1  0.80783595  0.75255865  0.03278951  1
  B  B31  1  0.75255865  0.03278951  0.80783595  1
  H  H32  1  0.27519767  0.53364462  0.10329151  1
  H  H33  1  0.33739760  0.10703022  0.70130462  1
  H  H34  1  0.91873521  0.32622953  0.84783098  1
  H  H35  1  0.32622953  0.84783098  0.91873521  1
  H  H36  1  0.82622953  0.65216902  0.08126479  1
  H  H37  1  0.74615150  0.52342296  0.20990462  1
  H  H38  1  0.08126479  0.67377047  0.15216902  1
  H  H39  1  0.72480233  0.46635538  0.89670849  1
  H  H40  1  0.72480233  0.03364462  0.39670849  1
  H  H41  1  0.16260240  0.89296978  0.20130462  1
  H  H42  1  0.91873521  0.17377047  0.34783098  1
  H  H43  1  0.70130462  0.16260240  0.60703022  1
  H  H44  1  0.67377047  0.15216902  0.08126479  1
  H  H45  1  0.08126479  0.82622953  0.65216902  1
  H  H46  1  0.41873521  0.32622953  0.65216902  1
  H  H47  1  0.24615150  0.52342296  0.29009538  1
  H  H48  1  0.29009538  0.25384850  0.02342296  1
  H  H49  1  0.10703022  0.70130462  0.33739760  1
  H  H50  1  0.34783098  0.58126479  0.67377047  1
  H  H51  1  0.79009538  0.24615150  0.97657704  1
  H  H52  1  0.29009538  0.24615150  0.52342296  1
  H  H53  1  0.89670849  0.72480233  0.46635538  1
  H  H54  1  0.39670849  0.72480233  0.03364462  1
  H  H55  1  0.79869538  0.83739760  0.10703022  1
  H  H56  1  0.60703022  0.79869538  0.66260240  1
  H  H57  1  0.75384850  0.02342296  0.20990462  1
  H  H58  1  0.47657704  0.79009538  0.25384850  1
  H  H59  1  0.52342296  0.29009538  0.24615150  1
  H  H60  1  0.15216902  0.08126479  0.67377047  1
  H  H61  1  0.16260240  0.60703022  0.70130462  1
  H  H62  1  0.24615150  0.97657704  0.79009538  1
  H  H63  1  0.15216902  0.41873521  0.17377047  1
  H  H64  1  0.53364462  0.39670849  0.77519767  1
  H  H65  1  0.20130462  0.33739760  0.39296978  1
  H  H66  1  0.25384850  0.47657704  0.79009538  1
  H  H67  1  0.70130462  0.33739760  0.10703022  1
  H  H68  1  0.65216902  0.08126479  0.82622953  1
  H  H69  1  0.83739760  0.10703022  0.79869538  1
  H  H70  1  0.96635538  0.89670849  0.77519767  1
  H  H71  1  0.32622953  0.65216902  0.41873521  1
  H  H72  1  0.77519767  0.53364462  0.39670849  1
  H  H73  1  0.75384850  0.47657704  0.70990462  1
  H  H74  1  0.52342296  0.20990462  0.74615150  1
  H  H75  1  0.58126479  0.67377047  0.34783098  1
  H  H76  1  0.66260240  0.89296978  0.29869538  1
  H  H77  1  0.25384850  0.02342296  0.29009538  1
  H  H78  1  0.53364462  0.10329151  0.27519767  1
  H  H79  1  0.46635538  0.89670849  0.72480233  1
  H  H80  1  0.60329151  0.27519767  0.96635538  1
  H  H81  1  0.70990462  0.74615150  0.97657704  1
  H  H82  1  0.89296978  0.20130462  0.16260240  1
  H  H83  1  0.22480233  0.46635538  0.60329151  1
  H  H84  1  0.66260240  0.60703022  0.79869538  1
  H  H85  1  0.03364462  0.10329151  0.22480233  1
  H  H86  1  0.10703022  0.79869538  0.83739760  1
  H  H87  1  0.84783098  0.91873521  0.32622953  1
  H  H88  1  0.60329151  0.22480233  0.46635538  1
  H  H89  1  0.10329151  0.22480233  0.03364462  1
  H  H90  1  0.77519767  0.96635538  0.89670849  1
  H  H91  1  0.70990462  0.75384850  0.47657704  1
  H  H92  1  0.84783098  0.58126479  0.82622953  1
  H  H93  1  0.39296978  0.20130462  0.33739760  1
  H  H94  1  0.79869538  0.66260240  0.60703022  1
  H  H95  1  0.41873521  0.17377047  0.15216902  1
  H  H96  1  0.96635538  0.60329151  0.27519767  1
  H  H97  1  0.02342296  0.29009538  0.25384850  1
  H  H98  1  0.02342296  0.20990462  0.75384850  1
  H  H99  1  0.20130462  0.16260240  0.89296978  1
  H  H100  1  0.39670849  0.77519767  0.53364462  1
  H  H101  1  0.97657704  0.79009538  0.24615150  1
  H  H102  1  0.74615150  0.97657704  0.70990462  1
  H  H103  1  0.65216902  0.41873521  0.32622953  1
  H  H104  1  0.58126479  0.82622953  0.84783098  1
  H  H105  1  0.29869538  0.66260240  0.89296978  1
  H  H106  1  0.10329151  0.27519767  0.53364462  1
  H  H107  1  0.29869538  0.83739760  0.39296978  1
  H  H108  1  0.82622953  0.84783098  0.58126479  1
  H  H109  1  0.79009538  0.25384850  0.47657704  1
  H  H110  1  0.46635538  0.60329151  0.22480233  1
  H  H111  1  0.20990462  0.75384850  0.02342296  1
  H  H112  1  0.97657704  0.70990462  0.74615150  1
  H  H113  1  0.60703022  0.70130462  0.16260240  1
  H  H114  1  0.22480233  0.03364462  0.10329151  1
  H  H115  1  0.20990462  0.74615150  0.52342296  1
  H  H116  1  0.34783098  0.91873521  0.17377047  1
  H  H117  1  0.39296978  0.29869538  0.83739760  1
  H  H118  1  0.89296978  0.29869538  0.66260240  1
  H  H119  1  0.47657704  0.70990462  0.75384850  1
  H  H120  1  0.27519767  0.96635538  0.60329151  1
  H  H121  1  0.83739760  0.39296978  0.29869538  1
  H  H122  1  0.17377047  0.34783098  0.91873521  1
  H  H123  1  0.67377047  0.34783098  0.58126479  1
  H  H124  1  0.89670849  0.77519767  0.96635538  1
  H  H125  1  0.17377047  0.15216902  0.41873521  1
  H  H126  1  0.33739760  0.39296978  0.20130462  1
  H  H127  1  0.03364462  0.39670849  0.72480233  1
