# generated using pymatgen
data_CsK2BiCl6
_symmetry_space_group_name_H-M   'P 1'
_cell_length_a   7.90670534
_cell_length_b   13.25854250
_cell_length_c   13.61967836
_cell_angle_alpha   98.64002200
_cell_angle_beta   106.87398281
_cell_angle_gamma   90.00000074
_symmetry_Int_Tables_number   1
_chemical_formula_structural   CsK2BiCl6
_chemical_formula_sum   'Cs4 K8 Bi4 Cl24'
_cell_volume   1349.35714839
_cell_formula_units_Z   4
loop_
 _symmetry_equiv_pos_site_id
 _symmetry_equiv_pos_as_xyz
  1  'x, y, z'
loop_
 _atom_site_type_symbol
 _atom_site_label
 _atom_site_symmetry_multiplicity
 _atom_site_fract_x
 _atom_site_fract_y
 _atom_site_fract_z
 _atom_site_occupancy
  Cs  Cs0  1  0.21175779  0.56974184  0.89714461  1
  Cs  Cs1  1  0.78824221  0.43025816  0.10285539  1
  Cs  Cs2  1  0.68538681  0.06974184  0.89714461  1
  Cs  Cs3  1  0.31461319  0.93025816  0.10285539  1
  K  K4  1  0.53014940  0.36881114  0.68669583  1
  K  K5  1  0.02330784  0.20054303  0.67609365  1
  K  K6  1  0.34721419  0.29945697  0.32390635  1
  K  K7  1  0.46985060  0.63118886  0.31330417  1
  K  K8  1  0.84345357  0.13118886  0.31330417  1
  K  K9  1  0.97669216  0.79945697  0.32390635  1
  K  K10  1  0.15654643  0.86881114  0.68669583  1
  K  K11  1  0.65278581  0.70054303  0.67609365  1
  Bi  Bi12  1  0.00000000  0.50000000  0.50000000  1
  Bi  Bi13  1  0.77811546  0.75000000  1.00000000  1
  Bi  Bi14  1  0.22188454  0.25000000  0.00000000  1
  Bi  Bi15  1  0.50000000  0.00000000  0.50000000  1
  Cl  Cl16  1  0.86126164  0.69209405  0.50040749  1
  Cl  Cl17  1  0.60804161  0.68494634  0.13045390  1
  Cl  Cl18  1  0.85938157  0.47347039  0.65484691  1
  Cl  Cl19  1  0.30218718  0.57400037  0.65156701  1
  Cl  Cl20  1  0.34937983  0.07400037  0.65156701  1
  Cl  Cl21  1  0.52241230  0.18494634  0.13045390  1
  Cl  Cl22  1  0.20453467  0.02652961  0.34515309  1
  Cl  Cl23  1  0.09293387  0.70051014  0.12867843  1
  Cl  Cl24  1  0.13873836  0.30790595  0.49959251  1
  Cl  Cl25  1  0.29220855  0.43825522  0.11615743  1
  Cl  Cl26  1  0.79546533  0.97347039  0.65484691  1
  Cl  Cl27  1  0.63914584  0.19209405  0.50040749  1
  Cl  Cl28  1  0.70779145  0.56174478  0.88384257  1
  Cl  Cl29  1  0.14061843  0.52652961  0.34515309  1
  Cl  Cl30  1  0.90706613  0.29948986  0.87132157  1
  Cl  Cl31  1  0.69781282  0.42599963  0.34843299  1
  Cl  Cl32  1  0.36085416  0.80790595  0.49959251  1
  Cl  Cl33  1  0.47758770  0.81505366  0.86954610  1
  Cl  Cl34  1  0.96425545  0.79948986  0.87132157  1
  Cl  Cl35  1  0.03574455  0.20051014  0.12867843  1
  Cl  Cl36  1  0.39195839  0.31505366  0.86954610  1
  Cl  Cl37  1  0.65062017  0.92599963  0.34843299  1
  Cl  Cl38  1  0.17605112  0.06174478  0.88384257  1
  Cl  Cl39  1  0.82394888  0.93825522  0.11615743  1
