# generated using pymatgen
data_Dy4CdCo
_symmetry_space_group_name_H-M   'P 1'
_cell_length_a   9.49163910
_cell_length_b   9.49163939
_cell_length_c   9.49163947
_cell_angle_alpha   59.99999975
_cell_angle_beta   59.99999874
_cell_angle_gamma   59.99999817
_symmetry_Int_Tables_number   1
_chemical_formula_structural   Dy4CdCo
_chemical_formula_sum   'Dy16 Cd4 Co4'
_cell_volume   604.65642421
_cell_formula_units_Z   4
loop_
 _symmetry_equiv_pos_site_id
 _symmetry_equiv_pos_as_xyz
  1  'x, y, z'
loop_
 _atom_site_type_symbol
 _atom_site_label
 _atom_site_symmetry_multiplicity
 _atom_site_fract_x
 _atom_site_fract_y
 _atom_site_fract_z
 _atom_site_occupancy
  Dy  Dy0  1  0.34635167  0.34635167  0.34635167  1
  Dy  Dy1  1  0.81163844  0.18836156  0.81163844  1
  Dy  Dy2  1  0.81163844  0.81163844  0.18836156  1
  Dy  Dy3  1  0.56183543  0.56183543  0.93816457  1
  Dy  Dy4  1  0.96094498  0.34635167  0.34635167  1
  Dy  Dy5  1  0.34635167  0.34635167  0.96094498  1
  Dy  Dy6  1  0.56183543  0.93816457  0.93816457  1
  Dy  Dy7  1  0.18836156  0.81163844  0.18836156  1
  Dy  Dy8  1  0.93816457  0.93816457  0.56183543  1
  Dy  Dy9  1  0.93816457  0.56183543  0.93816457  1
  Dy  Dy10  1  0.81163844  0.18836156  0.18836156  1
  Dy  Dy11  1  0.93816457  0.56183543  0.56183543  1
  Dy  Dy12  1  0.56183543  0.93816457  0.56183543  1
  Dy  Dy13  1  0.18836156  0.18836156  0.81163844  1
  Dy  Dy14  1  0.34635167  0.96094498  0.34635167  1
  Dy  Dy15  1  0.18836156  0.81163844  0.81163844  1
  Cd  Cd16  1  0.58052195  0.58052195  0.58052195  1
  Cd  Cd17  1  0.58052195  0.25843416  0.58052195  1
  Cd  Cd18  1  0.58052195  0.58052195  0.25843416  1
  Cd  Cd19  1  0.25843416  0.58052195  0.58052195  1
  Co  Co20  1  0.14101748  0.14101748  0.57694756  1
  Co  Co21  1  0.14101748  0.14101748  0.14101748  1
  Co  Co22  1  0.57694756  0.14101748  0.14101748  1
  Co  Co23  1  0.14101748  0.57694756  0.14101748  1
