# generated using pymatgen
data_Ce4C4Br3
_symmetry_space_group_name_H-M   'P 1'
_cell_length_a   4.15334861
_cell_length_b   10.97736327
_cell_length_c   11.09374378
_cell_angle_alpha   102.84411797
_cell_angle_beta   90.28664700
_cell_angle_gamma   94.45770238
_symmetry_Int_Tables_number   1
_chemical_formula_structural   Ce4C4Br3
_chemical_formula_sum   'Ce8 C8 Br6'
_cell_volume   491.51832951
_cell_formula_units_Z   2
loop_
 _symmetry_equiv_pos_site_id
 _symmetry_equiv_pos_as_xyz
  1  'x, y, z'
loop_
 _atom_site_type_symbol
 _atom_site_label
 _atom_site_symmetry_multiplicity
 _atom_site_fract_x
 _atom_site_fract_y
 _atom_site_fract_z
 _atom_site_occupancy
  Ce  Ce0  1  0.62024325  0.16700858  0.01768127  1
  Ce  Ce1  1  0.24240632  0.36169538  0.83056164  1
  Ce  Ce2  1  0.37975675  0.83299142  0.98231873  1
  Ce  Ce3  1  0.62561120  0.17250057  0.56114796  1
  Ce  Ce4  1  0.98558603  0.97857409  0.24008255  1
  Ce  Ce5  1  0.01441397  0.02142591  0.75991745  1
  Ce  Ce6  1  0.75759368  0.63830462  0.16943836  1
  Ce  Ce7  1  0.37438880  0.82749943  0.43885204  1
  C  C8  1  0.50798820  0.84774346  0.21454744  1
  C  C9  1  0.86367240  0.95911138  0.99524847  1
  C  C10  1  0.23868276  0.76161691  0.19464441  1
  C  C11  1  0.13632760  0.04088862  0.00475153  1
  C  C12  1  0.13448119  0.03884012  0.51642472  1
  C  C13  1  0.86551881  0.96115988  0.48357528  1
  C  C14  1  0.76131724  0.23838309  0.80535559  1
  C  C15  1  0.49201180  0.15225654  0.78545256  1
  Br  Br16  1  0.19346954  0.38832509  0.57719894  1
  Br  Br17  1  0.19989129  0.40304861  0.11059063  1
  Br  Br18  1  0.80010871  0.59695139  0.88940937  1
  Br  Br19  1  0.58579072  0.20442013  0.29594043  1
  Br  Br20  1  0.41420928  0.79557987  0.70405957  1
  Br  Br21  1  0.80653046  0.61167491  0.42280106  1
