# generated using pymatgen
data_Li2CuAsO4
_symmetry_space_group_name_H-M   'P 1'
_cell_length_a   5.57832957
_cell_length_b   5.09891106
_cell_length_c   6.87860439
_cell_angle_alpha   90.00000000
_cell_angle_beta   88.35089684
_cell_angle_gamma   90.00000000
_symmetry_Int_Tables_number   1
_chemical_formula_structural   Li2CuAsO4
_chemical_formula_sum   'Li4 Cu2 As2 O8'
_cell_volume   195.56990471
_cell_formula_units_Z   2
loop_
 _symmetry_equiv_pos_site_id
 _symmetry_equiv_pos_as_xyz
  1  'x, y, z'
loop_
 _atom_site_type_symbol
 _atom_site_label
 _atom_site_symmetry_multiplicity
 _atom_site_fract_x
 _atom_site_fract_y
 _atom_site_fract_z
 _atom_site_occupancy
  Li  Li0  1  0.08821480  0.96707017  0.18263797  1
  Li  Li1  1  0.19341836  0.48582116  0.48612511  1
  Li  Li2  1  0.80658164  0.98582116  0.51387489  1
  Li  Li3  1  0.91178520  0.46707017  0.81736203  1
  Cu  Cu4  1  0.33404461  0.54937071  0.99942653  1
  Cu  Cu5  1  0.66595539  0.04937071  0.00057347  1
  As  As6  1  0.27694830  0.99324720  0.73330790  1
  As  As7  1  0.72305170  0.49324720  0.26669210  1
  O  O8  1  0.13019920  0.14828011  0.92537722  1
  O  O9  1  0.15427992  0.10048187  0.52136285  1
  O  O10  1  0.23682377  0.65295402  0.74536770  1
  O  O11  1  0.58468785  0.05673876  0.73497454  1
  O  O12  1  0.41531215  0.55673876  0.26502546  1
  O  O13  1  0.76317623  0.15295402  0.25463230  1
  O  O14  1  0.84572008  0.60048187  0.47863715  1
  O  O15  1  0.86980080  0.64828011  0.07462278  1
