# generated using pymatgen
data_InGa2Cl7
_symmetry_space_group_name_H-M   'P 1'
_cell_length_a   9.38046277
_cell_length_b   10.96313295
_cell_length_c   12.41315019
_cell_angle_alpha   90.00000000
_cell_angle_beta   90.00000000
_cell_angle_gamma   90.00000000
_symmetry_Int_Tables_number   1
_chemical_formula_structural   InGa2Cl7
_chemical_formula_sum   'In4 Ga8 Cl28'
_cell_volume   1276.55918577
_cell_formula_units_Z   4
loop_
 _symmetry_equiv_pos_site_id
 _symmetry_equiv_pos_as_xyz
  1  'x, y, z'
loop_
 _atom_site_type_symbol
 _atom_site_label
 _atom_site_symmetry_multiplicity
 _atom_site_fract_x
 _atom_site_fract_y
 _atom_site_fract_z
 _atom_site_occupancy
  In  In0  1  0.63896593  0.37602849  0.88789876  1
  In  In1  1  0.13896593  0.87602849  0.61210124  1
  In  In2  1  0.86103407  0.37602849  0.38789876  1
  In  In3  1  0.36103407  0.87602849  0.11210124  1
  Ga  Ga4  1  0.61728614  0.74248431  0.61634915  1
  Ga  Ga5  1  0.93340782  0.99950322  0.32369334  1
  Ga  Ga6  1  0.38271386  0.24248431  0.38365085  1
  Ga  Ga7  1  0.43340782  0.49950322  0.17630666  1
  Ga  Ga8  1  0.88271386  0.74248431  0.11634915  1
  Ga  Ga9  1  0.56659218  0.99950322  0.82369334  1
  Ga  Ga10  1  0.06659218  0.49950322  0.67630666  1
  Ga  Ga11  1  0.11728614  0.24248431  0.88365085  1
  Cl  Cl12  1  0.23193493  0.36979696  0.75730121  1
  Cl  Cl13  1  0.79549782  0.69105722  0.51423038  1
  Cl  Cl14  1  0.87369569  0.38854834  0.65839741  1
  Cl  Cl15  1  0.54690306  0.15534474  0.71636499  1
  Cl  Cl16  1  0.97762229  0.59604276  0.20933431  1
  Cl  Cl17  1  0.46103559  0.85791428  0.53450133  1
  Cl  Cl18  1  0.20450218  0.19105722  0.48576962  1
  Cl  Cl19  1  0.70450218  0.69105722  0.01423038  1
  Cl  Cl20  1  0.12630431  0.88854834  0.34160259  1
  Cl  Cl21  1  0.47762229  0.09604276  0.29066569  1
  Cl  Cl22  1  0.52237771  0.59604276  0.70933431  1
  Cl  Cl23  1  0.73193493  0.86979696  0.74269879  1
  Cl  Cl24  1  0.45309694  0.65534474  0.28363501  1
  Cl  Cl25  1  0.04690306  0.65534474  0.78363501  1
  Cl  Cl26  1  0.65893672  0.05058967  0.97774188  1
  Cl  Cl27  1  0.15893672  0.55058967  0.52225812  1
  Cl  Cl28  1  0.37369569  0.88854834  0.84160259  1
  Cl  Cl29  1  0.29549782  0.19105722  0.98576962  1
  Cl  Cl30  1  0.53896441  0.35791428  0.46549867  1
  Cl  Cl31  1  0.62630431  0.38854834  0.15839741  1
  Cl  Cl32  1  0.96103559  0.35791428  0.96549867  1
  Cl  Cl33  1  0.26806507  0.36979696  0.25730121  1
  Cl  Cl34  1  0.03896441  0.85791428  0.03450133  1
  Cl  Cl35  1  0.76806507  0.86979696  0.24269879  1
  Cl  Cl36  1  0.34106328  0.55058967  0.02225812  1
  Cl  Cl37  1  0.95309694  0.15534474  0.21636499  1
  Cl  Cl38  1  0.84106328  0.05058967  0.47774188  1
  Cl  Cl39  1  0.02237771  0.09604276  0.79066569  1
