# generated using pymatgen
data_RbNa5(WN3)2
_symmetry_space_group_name_H-M   'P 1'
_cell_length_a   9.42820120
_cell_length_b   10.38204384
_cell_length_c   19.34862859
_cell_angle_alpha   90.00000000
_cell_angle_beta   90.12239634
_cell_angle_gamma   90.00000000
_symmetry_Int_Tables_number   1
_chemical_formula_structural   RbNa5(WN3)2
_chemical_formula_sum   'Rb8 Na40 W16 N48'
_cell_volume   1893.91680500
_cell_formula_units_Z   8
loop_
 _symmetry_equiv_pos_site_id
 _symmetry_equiv_pos_as_xyz
  1  'x, y, z'
loop_
 _atom_site_type_symbol
 _atom_site_label
 _atom_site_symmetry_multiplicity
 _atom_site_fract_x
 _atom_site_fract_y
 _atom_site_fract_z
 _atom_site_occupancy
  Rb  Rb0  1  0.38415101  0.23109724  0.41793949  1
  Rb  Rb1  1  0.61584899  0.73109724  0.08206051  1
  Rb  Rb2  1  0.13054656  0.76639902  0.03841429  1
  Rb  Rb3  1  0.61584899  0.76890276  0.58206051  1
  Rb  Rb4  1  0.86945344  0.26639902  0.46158571  1
  Rb  Rb5  1  0.86945344  0.23360098  0.96158571  1
  Rb  Rb6  1  0.38415101  0.26890276  0.91793949  1
  Rb  Rb7  1  0.13054656  0.73360098  0.53841429  1
  Na  Na8  1  0.62773735  0.50452405  0.20343445  1
  Na  Na9  1  0.12616775  0.01927076  0.44803783  1
  Na  Na10  1  0.89321581  0.49078795  0.31794746  1
  Na  Na11  1  0.63375253  0.48983354  0.67128391  1
  Na  Na12  1  0.13115625  0.48818037  0.44120268  1
  Na  Na13  1  0.38117998  0.49713149  0.56295495  1
  Na  Na14  1  0.37775992  0.49546144  0.06420343  1
  Na  Na15  1  0.12167137  0.67006192  0.84119297  1
  Na  Na16  1  0.62145136  0.66840944  0.78393853  1
  Na  Na17  1  0.37854864  0.16840944  0.71606147  1
  Na  Na18  1  0.87383225  0.98072924  0.55196217  1
  Na  Na19  1  0.62145136  0.83159056  0.28393853  1
  Na  Na20  1  0.36624747  0.98983354  0.82871609  1
  Na  Na21  1  0.62773735  0.99547595  0.70343445  1
  Na  Na22  1  0.37226265  0.00452405  0.29656555  1
  Na  Na23  1  0.36624747  0.51016646  0.32871609  1
  Na  Na24  1  0.12523718  0.99729547  0.67987340  1
  Na  Na25  1  0.87832863  0.32993808  0.15880703  1
  Na  Na26  1  0.89321581  0.00921205  0.81794746  1
  Na  Na27  1  0.37226265  0.49547595  0.79656555  1
  Na  Na28  1  0.86884375  0.98818037  0.05879732  1
  Na  Na29  1  0.10678419  0.50921205  0.68205254  1
  Na  Na30  1  0.87476282  0.49729547  0.82012660  1
  Na  Na31  1  0.37854864  0.33159056  0.21606147  1
  Na  Na32  1  0.86884375  0.51181963  0.55879732  1
  Na  Na33  1  0.37775992  0.00453856  0.56420343  1
  Na  Na34  1  0.12616775  0.48072924  0.94803783  1
  Na  Na35  1  0.61882002  0.50286851  0.43704505  1
  Na  Na36  1  0.87832863  0.17006192  0.65880703  1
  Na  Na37  1  0.13115625  0.01181963  0.94120268  1
  Na  Na38  1  0.87476282  0.00270453  0.32012660  1
  Na  Na39  1  0.62224008  0.99546144  0.43579657  1
  Na  Na40  1  0.10678419  0.99078795  0.18205254  1
  Na  Na41  1  0.61882002  0.99713149  0.93704505  1
  Na  Na42  1  0.62224008  0.50453856  0.93579657  1
  Na  Na43  1  0.38117998  0.00286851  0.06295495  1
  Na  Na44  1  0.87383225  0.51927076  0.05196217  1
  Na  Na45  1  0.12167137  0.82993808  0.34119297  1
  Na  Na46  1  0.12523718  0.50270453  0.17987340  1
  Na  Na47  1  0.63375253  0.01016646  0.17128391  1
  W  W48  1  0.82897571  0.76118104  0.90581872  1
  W  W49  1  0.07939302  0.23405746  0.28829114  1
  W  W50  1  0.42256864  0.75471108  0.41261337  1
  W  W51  1  0.82897571  0.73881896  0.40581872  1
  W  W52  1  0.17102429  0.26118104  0.59418128  1
  W  W53  1  0.17102429  0.23881896  0.09418128  1
  W  W54  1  0.32722912  0.76261525  0.71728936  1
  W  W55  1  0.42256864  0.74528892  0.91261337  1
  W  W56  1  0.67277088  0.26261525  0.78271064  1
  W  W57  1  0.07939302  0.26594254  0.78829114  1
  W  W58  1  0.92060698  0.76594254  0.71170886  1
  W  W59  1  0.92060698  0.73405746  0.21170886  1
  W  W60  1  0.67277088  0.23738475  0.28271064  1
  W  W61  1  0.57743136  0.25471108  0.08738663  1
  W  W62  1  0.57743136  0.24528892  0.58738663  1
  W  W63  1  0.32722912  0.73738475  0.21728936  1
  N  N64  1  0.42038282  0.63048700  0.67342070  1
  N  N65  1  0.61571635  0.42385156  0.81399452  1
  N  N66  1  0.63083807  0.24281426  0.68516723  1
  N  N67  1  0.35948130  0.89588474  0.95131193  1
  N  N68  1  0.34579518  0.89556508  0.45635762  1
  N  N69  1  0.61571635  0.07614844  0.31399452  1
  N  N70  1  0.62687572  0.75980963  0.41849644  1
  N  N71  1  0.07300309  0.12720231  0.55447620  1
  N  N72  1  0.62687572  0.74019037  0.91849644  1
  N  N73  1  0.13035204  0.07253432  0.32099245  1
  N  N74  1  0.11188887  0.08134576  0.06161996  1
  N  N75  1  0.92699691  0.87279769  0.44552380  1
  N  N76  1  0.57961718  0.13048700  0.82657930  1
  N  N77  1  0.57961718  0.36951300  0.32657930  1
  N  N78  1  0.92699691  0.62720231  0.94552380  1
  N  N79  1  0.64051870  0.39588474  0.54868807  1
  N  N80  1  0.88811113  0.91865424  0.93838004  1
  N  N81  1  0.37312428  0.24019037  0.58150356  1
  N  N82  1  0.13233750  0.25040097  0.19227614  1
  N  N83  1  0.16715589  0.13570952  0.83573497  1
  N  N84  1  0.35948130  0.60411526  0.45131193  1
  N  N85  1  0.37312428  0.25980963  0.08150356  1
  N  N86  1  0.13035204  0.42746568  0.82099245  1
  N  N87  1  0.65420482  0.10443492  0.54364238  1
  N  N88  1  0.86766250  0.75040097  0.30772386  1
  N  N89  1  0.65420482  0.39556508  0.04364238  1
  N  N90  1  0.11188887  0.41865424  0.56161996  1
  N  N91  1  0.36916193  0.75718574  0.31483277  1
  N  N92  1  0.07300309  0.37279769  0.05447620  1
  N  N93  1  0.64051870  0.10411526  0.04868807  1
  N  N94  1  0.12434705  0.75392458  0.20538464  1
  N  N95  1  0.42038282  0.86951300  0.17342070  1
  N  N96  1  0.63083807  0.25718574  0.18516723  1
  N  N97  1  0.87565295  0.24607542  0.79461536  1
  N  N98  1  0.16715589  0.36429048  0.33573497  1
  N  N99  1  0.83284411  0.86429048  0.16426503  1
  N  N100  1  0.13233750  0.24959903  0.69227614  1
  N  N101  1  0.86766250  0.74959903  0.80772386  1
  N  N102  1  0.87565295  0.25392458  0.29461536  1
  N  N103  1  0.88811113  0.58134576  0.43838004  1
  N  N104  1  0.38428365  0.92385156  0.68600548  1
  N  N105  1  0.83284411  0.63570952  0.66426503  1
  N  N106  1  0.34579518  0.60443492  0.95635762  1
  N  N107  1  0.36916193  0.74281426  0.81483277  1
  N  N108  1  0.12434705  0.74607542  0.70538464  1
  N  N109  1  0.86964796  0.92746568  0.67900755  1
  N  N110  1  0.38428365  0.57614844  0.18600548  1
  N  N111  1  0.86964796  0.57253432  0.17900755  1
