# generated using pymatgen
data_LiCuSi2O5
_symmetry_space_group_name_H-M   'P 1'
_cell_length_a   5.73663539
_cell_length_b   4.93629039
_cell_length_c   7.97171755
_cell_angle_alpha   90.00000000
_cell_angle_beta   73.01532821
_cell_angle_gamma   90.00000000
_symmetry_Int_Tables_number   1
_chemical_formula_structural   LiCuSi2O5
_chemical_formula_sum   'Li2 Cu2 Si4 O10'
_cell_volume   215.89454594
_cell_formula_units_Z   2
loop_
 _symmetry_equiv_pos_site_id
 _symmetry_equiv_pos_as_xyz
  1  'x, y, z'
loop_
 _atom_site_type_symbol
 _atom_site_label
 _atom_site_symmetry_multiplicity
 _atom_site_fract_x
 _atom_site_fract_y
 _atom_site_fract_z
 _atom_site_occupancy
  Li  Li0  1  0.05749433  0.68250535  0.17619543  1
  Li  Li1  1  0.94250567  0.18250535  0.82380457  1
  Cu  Cu2  1  0.98570180  0.71433153  0.62764923  1
  Cu  Cu3  1  0.01429820  0.21433153  0.37235077  1
  Si  Si4  1  0.35253434  0.18220521  0.98493018  1
  Si  Si5  1  0.45042429  0.66876597  0.40446724  1
  Si  Si6  1  0.54957571  0.16876597  0.59553276  1
  Si  Si7  1  0.64746566  0.68220521  0.01506982  1
  O  O8  1  0.10507205  0.28284175  0.12511506  1
  O  O9  1  0.18259752  0.73984274  0.38572740  1
  O  O10  1  0.32756585  0.22545075  0.78447732  1
  O  O11  1  0.40166643  0.85355342  0.00642993  1
  O  O12  1  0.46893389  0.34415926  0.44708004  1
  O  O13  1  0.53106611  0.84415926  0.55291996  1
  O  O14  1  0.59833357  0.35355342  0.99357007  1
  O  O15  1  0.67243415  0.72545075  0.21552268  1
  O  O16  1  0.81740248  0.23984274  0.61427260  1
  O  O17  1  0.89492795  0.78284175  0.87488494  1
