# generated using pymatgen
data_Cs3Tb10C4Cl21
_symmetry_space_group_name_H-M   'P 1'
_cell_length_a   12.64786103
_cell_length_b   13.36258160
_cell_length_c   15.28033872
_cell_angle_alpha   97.18187226
_cell_angle_beta   90.00000000
_cell_angle_gamma   118.24590079
_symmetry_Int_Tables_number   1
_chemical_formula_structural   Cs3Tb10C4Cl21
_chemical_formula_sum   'Cs6 Tb20 C8 Cl42'
_cell_volume   2251.96175151
_cell_formula_units_Z   2
loop_
 _symmetry_equiv_pos_site_id
 _symmetry_equiv_pos_as_xyz
  1  'x, y, z'
loop_
 _atom_site_type_symbol
 _atom_site_label
 _atom_site_symmetry_multiplicity
 _atom_site_fract_x
 _atom_site_fract_y
 _atom_site_fract_z
 _atom_site_occupancy
  Tb  Tb0  1  0.49630246  0.74178610  0.37129363  1
  Tb  Tb1  1  0.04028011  0.80750814  0.98345692  1
  Tb  Tb2  1  0.08078424  0.43276024  0.19981972  1
  Tb  Tb3  1  0.50551054  0.75368519  0.61849653  1
  Tb  Tb4  1  0.09960698  0.47354509  0.95961694  1
  Tb  Tb5  1  0.37393812  0.47354509  0.45961694  1
  Tb  Tb6  1  0.24548363  0.74178610  0.87129363  1
  Tb  Tb7  1  0.49448946  0.24631481  0.38150347  1
  Tb  Tb8  1  0.64802400  0.56723976  0.30018028  1
  Tb  Tb9  1  0.95971989  0.19249186  0.01654308  1
  Tb  Tb10  1  0.24817465  0.75368519  0.11849653  1
  Tb  Tb11  1  0.90039302  0.52645491  0.04038306  1
  Tb  Tb12  1  0.75182535  0.24631481  0.88150347  1
  Tb  Tb13  1  0.50369754  0.25821390  0.62870637  1
  Tb  Tb14  1  0.91921576  0.56723976  0.80018028  1
  Tb  Tb15  1  0.23277196  0.19249186  0.51654308  1
  Tb  Tb16  1  0.76722804  0.80750814  0.48345692  1
  Tb  Tb17  1  0.35197600  0.43276024  0.69981972  1
  Tb  Tb18  1  0.62606188  0.52645491  0.54038306  1
  Tb  Tb19  1  0.75451637  0.25821390  0.12870637  1
  Cs  Cs20  1  0.97274292  0.00000000  0.25000000  1
  Cs  Cs21  1  0.02725708  0.00000000  0.75000000  1
  Cs  Cs22  1  0.14011637  0.78981245  0.45249270  1
  Cs  Cs23  1  0.35030392  0.21018755  0.04750730  1
  Cs  Cs24  1  0.85988363  0.21018755  0.54750730  1
  Cs  Cs25  1  0.64969608  0.78981245  0.95249270  1
  C  C26  1  0.87983215  0.33125856  0.00202694  1
  C  C27  1  0.40901448  0.37452837  0.57639971  1
  C  C28  1  0.03448611  0.62547163  0.92360029  1
  C  C29  1  0.59098552  0.62547163  0.42360029  1
  C  C30  1  0.96551389  0.37452837  0.07639971  1
  C  C31  1  0.45142641  0.33125856  0.50202694  1
  C  C32  1  0.12016785  0.66874144  0.99797306  1
  C  C33  1  0.54857359  0.66874144  0.49797306  1
  Cl  Cl34  1  0.27376434  0.55659247  0.10239884  1
  Cl  Cl35  1  0.71175174  0.93415406  0.38651039  1
  Cl  Cl36  1  0.18751975  0.92438006  0.13398932  1
  Cl  Cl37  1  0.57284366  0.62975057  0.72189027  1
  Cl  Cl38  1  0.73686031  0.92438006  0.63398932  1
  Cl  Cl39  1  0.22240232  0.93415406  0.88651039  1
  Cl  Cl40  1  0.12286304  0.25351106  0.16130613  1
  Cl  Cl41  1  0.94309309  0.37024943  0.77810973  1
  Cl  Cl42  1  0.77759768  0.06584594  0.11348961  1
  Cl  Cl43  1  0.11131096  0.68013261  0.71035167  1
  Cl  Cl44  1  0.70729851  0.43972918  0.14659662  1
  Cl  Cl45  1  0.72623566  0.44340753  0.89760116  1
  Cl  Cl46  1  0.42620641  0.84747324  0.51036832  1
  Cl  Cl47  1  0.85158578  0.70956468  0.07907351  1
  Cl  Cl48  1  0.44740241  0.83623221  0.77753335  1
  Cl  Cl49  1  0.42126683  0.84747324  0.01036832  1
  Cl  Cl50  1  0.26313969  0.07561994  0.36601068  1
  Cl  Cl51  1  0.29270149  0.56027082  0.85340338  1
  Cl  Cl52  1  0.28824826  0.06584594  0.61348961  1
  Cl  Cl53  1  0.43117835  0.31986739  0.78964833  1
  Cl  Cl54  1  0.87713696  0.74648894  0.83869387  1
  Cl  Cl55  1  0.73243067  0.43972918  0.64659662  1
  Cl  Cl56  1  0.05690691  0.62975057  0.22189027  1
  Cl  Cl57  1  0.56882165  0.68013261  0.21035167  1
  Cl  Cl58  1  0.61117020  0.16376779  0.72246665  1
  Cl  Cl59  1  0.26756933  0.56027082  0.35340338  1
  Cl  Cl60  1  0.13064802  0.25351106  0.66130613  1
  Cl  Cl61  1  0.00000000  0.00000000  0.00000000  1
  Cl  Cl62  1  0.14841422  0.29043532  0.92092649  1
  Cl  Cl63  1  0.57379359  0.15252676  0.48963168  1
  Cl  Cl64  1  0.57873317  0.15252676  0.98963168  1
  Cl  Cl65  1  0.42715634  0.37024943  0.27810973  1
  Cl  Cl66  1  0.38882980  0.83623221  0.27753335  1
  Cl  Cl67  1  0.88868904  0.31986739  0.28964833  1
  Cl  Cl68  1  0.14202110  0.29043532  0.42092649  1
  Cl  Cl69  1  0.28282813  0.55659247  0.60239884  1
  Cl  Cl70  1  0.86935198  0.74648894  0.33869387  1
  Cl  Cl71  1  0.81248025  0.07561994  0.86601068  1
  Cl  Cl72  1  0.71717187  0.44340753  0.39760116  1
  Cl  Cl73  1  0.55259759  0.16376779  0.22246665  1
  Cl  Cl74  1  0.85797890  0.70956468  0.57907351  1
  Cl  Cl75  1  0.00000000  0.00000000  0.50000000  1
