# generated using pymatgen
data_La5C2I9
_symmetry_space_group_name_H-M   'P 1'
_cell_length_a   8.10768449
_cell_length_b   17.33485501
_cell_length_c   36.82546167
_cell_angle_alpha   90.00000000
_cell_angle_beta   90.00000000
_cell_angle_gamma   90.00000000
_symmetry_Int_Tables_number   1
_chemical_formula_structural   La5C2I9
_chemical_formula_sum   'La40 C16 I72'
_cell_volume   5175.65421575
_cell_formula_units_Z   8
loop_
 _symmetry_equiv_pos_site_id
 _symmetry_equiv_pos_as_xyz
  1  'x, y, z'
loop_
 _atom_site_type_symbol
 _atom_site_label
 _atom_site_symmetry_multiplicity
 _atom_site_fract_x
 _atom_site_fract_y
 _atom_site_fract_z
 _atom_site_occupancy
  La  La0  1  0.98428399  0.80351372  0.60431422  1
  La  La1  1  0.87434162  0.56800919  0.36182387  1
  La  La2  1  0.51571601  0.19648628  0.10431422  1
  La  La3  1  0.98428399  0.69648628  0.10431422  1
  La  La4  1  0.87434162  0.93199081  0.86182387  1
  La  La5  1  0.12565838  0.06800919  0.13817613  1
  La  La6  1  0.59502167  0.67221529  0.29173482  1
  La  La7  1  0.89590087  0.80571553  0.34902637  1
  La  La8  1  0.10409913  0.19428447  0.65097363  1
  La  La9  1  0.89783297  0.80085562  0.94445732  1
  La  La10  1  0.10409913  0.30571553  0.15097363  1
  La  La11  1  0.12565838  0.43199081  0.63817613  1
  La  La12  1  0.10216703  0.19914438  0.05554268  1
  La  La13  1  0.60216703  0.19914438  0.44445732  1
  La  La14  1  0.59502167  0.82778471  0.79173482  1
  La  La15  1  0.37434162  0.56800919  0.13817613  1
  La  La16  1  0.39783297  0.80085562  0.55554268  1
  La  La17  1  0.40497833  0.32778471  0.70826518  1
  La  La18  1  0.39590087  0.80571553  0.15097363  1
  La  La19  1  0.90497833  0.32778471  0.79173482  1
  La  La20  1  0.62565838  0.43199081  0.86182387  1
  La  La21  1  0.89590087  0.69428447  0.84902637  1
  La  La22  1  0.39590087  0.69428447  0.65097363  1
  La  La23  1  0.60216703  0.30085562  0.94445732  1
  La  La24  1  0.01571601  0.19648628  0.39568578  1
  La  La25  1  0.48428399  0.80351372  0.89568578  1
  La  La26  1  0.89783297  0.69914438  0.44445732  1
  La  La27  1  0.01571601  0.30351372  0.89568578  1
  La  La28  1  0.09502167  0.82778471  0.70826518  1
  La  La29  1  0.62565838  0.06800919  0.36182387  1
  La  La30  1  0.40497833  0.17221529  0.20826518  1
  La  La31  1  0.39783297  0.69914438  0.05554268  1
  La  La32  1  0.37434162  0.93199081  0.63817613  1
  La  La33  1  0.10216703  0.30085562  0.55554268  1
  La  La34  1  0.09502167  0.67221529  0.20826518  1
  La  La35  1  0.60409913  0.19428447  0.84902637  1
  La  La36  1  0.90497833  0.17221529  0.29173482  1
  La  La37  1  0.51571601  0.30351372  0.60431422  1
  La  La38  1  0.60409913  0.30571553  0.34902637  1
  La  La39  1  0.48428399  0.69648628  0.39568578  1
  C  C40  1  0.78877843  0.80164065  0.88541457  1
  C  C41  1  0.21460821  0.68823776  0.15063731  1
  C  C42  1  0.28877843  0.80164065  0.61458543  1
  C  C43  1  0.28877843  0.69835935  0.11458543  1
  C  C44  1  0.21122157  0.30164065  0.61458543  1
  C  C45  1  0.21122157  0.19835935  0.11458543  1
  C  C46  1  0.28539179  0.18823776  0.15063731  1
  C  C47  1  0.21460821  0.81176224  0.65063731  1
  C  C48  1  0.78539179  0.31176224  0.84936269  1
  C  C49  1  0.71460821  0.81176224  0.84936269  1
  C  C50  1  0.71460821  0.68823776  0.34936269  1
  C  C51  1  0.78877843  0.69835935  0.38541457  1
  C  C52  1  0.78539179  0.18823776  0.34936269  1
  C  C53  1  0.71122157  0.19835935  0.38541457  1
  C  C54  1  0.71122157  0.30164065  0.88541457  1
  C  C55  1  0.28539179  0.31176224  0.65063731  1
  I  I56  1  0.35576211  0.33002067  0.41914561  1
  I  I57  1  0.32536072  0.42774359  0.92511771  1
  I  I58  1  0.33549061  0.04710870  0.05691112  1
  I  I59  1  0.14423789  0.83002067  0.41914561  1
  I  I60  1  0.02717042  0.87763163  0.14491638  1
  I  I61  1  0.91909616  0.29712072  0.46989292  1
  I  I62  1  0.61429059  0.44641102  0.77051546  1
  I  I63  1  0.08090384  0.79712072  0.03010708  1
  I  I64  1  0.78988601  0.18359344  0.17191693  1
  I  I65  1  0.85576211  0.33002067  0.08085439  1
  I  I66  1  0.71011399  0.68359344  0.17191693  1
  I  I67  1  0.58090384  0.70287928  0.96989292  1
  I  I68  1  0.28988601  0.31640656  0.82808307  1
  I  I69  1  0.35540405  0.80064914  0.23879608  1
  I  I70  1  0.17463928  0.92774359  0.92511771  1
  I  I71  1  0.66450939  0.95289130  0.94308888  1
  I  I72  1  0.16450939  0.95289130  0.55691112  1
  I  I73  1  0.61429059  0.05358898  0.27051546  1
  I  I74  1  0.38570941  0.94641102  0.72948454  1
  I  I75  1  0.11429059  0.44641102  0.72948454  1
  I  I76  1  0.64423789  0.66997933  0.58085439  1
  I  I77  1  0.33549061  0.45289130  0.55691112  1
  I  I78  1  0.88570941  0.94641102  0.77051546  1
  I  I79  1  0.82536072  0.07225641  0.07488229  1
  I  I80  1  0.21011399  0.81640656  0.82808307  1
  I  I81  1  0.52717042  0.62236837  0.85508362  1
  I  I82  1  0.35576211  0.16997933  0.91914561  1
  I  I83  1  0.49017630  -0.00215772  0.16166105  1
  I  I84  1  0.64459595  0.30064914  0.26120392  1
  I  I85  1  0.21011399  0.68359344  0.32808307  1
  I  I86  1  0.83549061  0.04710870  0.44308888  1
  I  I87  1  0.28988601  0.18359344  0.32808307  1
  I  I88  1  0.64459595  0.19935086  0.76120392  1
  I  I89  1  0.85576211  0.16997933  0.58085439  1
  I  I90  1  0.14423789  0.66997933  0.91914561  1
  I  I91  1  0.17463928  0.57225641  0.42511771  1
  I  I92  1  0.91909616  0.20287928  0.96989292  1
  I  I93  1  0.83549061  0.45289130  0.94308888  1
  I  I94  1  0.35540405  0.69935086  0.73879608  1
  I  I95  1  0.41909616  0.29712072  0.03010708  1
  I  I96  1  0.49017630  0.50215772  0.66166105  1
  I  I97  1  0.02717042  0.62236837  0.64491638  1
  I  I98  1  0.16450939  0.54710870  0.05691112  1
  I  I99  1  0.99017630  -0.00215772  0.33833895  1
  I  I100  1  0.47282958  0.37763163  0.14491638  1
  I  I101  1  0.00982370  1.00215772  0.66166105  1
  I  I102  1  0.82536072  0.42774359  0.57488229  1
  I  I103  1  0.85540405  0.69935086  0.76120392  1
  I  I104  1  0.50982370  0.49784228  0.33833895  1
  I  I105  1  0.71011399  0.81640656  0.67191693  1
  I  I106  1  0.52717042  0.87763163  0.35508362  1
  I  I107  1  0.67463928  0.92774359  0.57488229  1
  I  I108  1  0.58090384  0.79712072  0.46989292  1
  I  I109  1  0.41909616  0.20287928  0.53010708  1
  I  I110  1  0.50982370  1.00215772  0.83833895  1
  I  I111  1  0.47282958  0.12236837  0.64491638  1
  I  I112  1  0.85540405  0.80064914  0.26120392  1
  I  I113  1  0.32536072  0.07225641  0.42511771  1
  I  I114  1  0.97282958  0.12236837  0.85508362  1
  I  I115  1  0.99017630  0.50215772  0.83833895  1
  I  I116  1  0.08090384  0.70287928  0.53010708  1
  I  I117  1  0.97282958  0.37763163  0.35508362  1
  I  I118  1  0.78988601  0.31640656  0.67191693  1
  I  I119  1  0.00982370  0.49784228  0.16166105  1
  I  I120  1  0.14459595  0.19935086  0.73879608  1
  I  I121  1  0.38570941  0.55358898  0.22948454  1
  I  I122  1  0.64423789  0.83002067  0.08085439  1
  I  I123  1  0.88570941  0.55358898  0.27051546  1
  I  I124  1  0.14459595  0.30064914  0.23879608  1
  I  I125  1  0.11429059  0.05358898  0.22948454  1
  I  I126  1  0.67463928  0.57225641  0.07488229  1
  I  I127  1  0.66450939  0.54710870  0.44308888  1
