# generated using pymatgen
data_PdSe
_symmetry_space_group_name_H-M   'P 1'
_cell_length_a   7.13322238
_cell_length_b   11.79151449
_cell_length_c   11.79151449
_cell_angle_alpha   90.00000000
_cell_angle_beta   90.00000000
_cell_angle_gamma   90.00000000
_symmetry_Int_Tables_number   1
_chemical_formula_structural   PdSe
_chemical_formula_sum   'Pd24 Se24'
_cell_volume   991.80191271
_cell_formula_units_Z   24
loop_
 _symmetry_equiv_pos_site_id
 _symmetry_equiv_pos_as_xyz
  1  'x, y, z'
loop_
 _atom_site_type_symbol
 _atom_site_label
 _atom_site_symmetry_multiplicity
 _atom_site_fract_x
 _atom_site_fract_y
 _atom_site_fract_z
 _atom_site_occupancy
  Pd  Pd0  1  0.50000000  0.14261834  0.26891349  1
  Pd  Pd1  1  0.00000000  0.76891349  0.64261834  1
  Pd  Pd2  1  0.50000000  0.87002385  0.04547837  1
  Pd  Pd3  1  0.00000000  0.26891349  0.85738166  1
  Pd  Pd4  1  0.00000000  0.54547837  0.37002385  1
  Pd  Pd5  1  0.00000000  0.73108651  0.14261834  1
  Pd  Pd6  1  0.50000000  0.12997615  0.95452163  1
  Pd  Pd7  1  0.00000000  0.45452163  0.62997615  1
  Pd  Pd8  1  0.50000000  0.62997615  0.54547837  1
  Pd  Pd9  1  0.75000000  0.88690878  0.38690878  1
  Pd  Pd10  1  0.25000000  0.61309122  0.88690878  1
  Pd  Pd11  1  0.25000000  0.38690878  0.11309122  1
  Pd  Pd12  1  0.50000000  0.35738166  0.76891349  1
  Pd  Pd13  1  0.75000000  0.11309122  0.61309122  1
  Pd  Pd14  1  0.50000000  0.64261834  0.23108651  1
  Pd  Pd15  1  0.50000000  0.37002385  0.45452163  1
  Pd  Pd16  1  0.00000000  0.95452163  0.87002385  1
  Pd  Pd17  1  0.25000000  0.11309122  0.61309122  1
  Pd  Pd18  1  0.25000000  0.88690878  0.38690878  1
  Pd  Pd19  1  0.75000000  0.61309122  0.88690878  1
  Pd  Pd20  1  0.75000000  0.38690878  0.11309122  1
  Pd  Pd21  1  0.50000000  0.85738166  0.73108651  1
  Pd  Pd22  1  0.00000000  0.23108651  0.35738166  1
  Pd  Pd23  1  0.00000000  0.04547837  0.12997615  1
  Se  Se24  1  0.22363142  0.88981311  0.17694306  1
  Se  Se25  1  0.25000000  0.59634656  0.09634656  1
  Se  Se26  1  0.25000000  0.09634656  0.40365344  1
  Se  Se27  1  0.72363142  0.82305694  0.88981311  1
  Se  Se28  1  0.72363142  0.32305694  0.61018689  1
  Se  Se29  1  0.77636858  0.61018689  0.67694306  1
  Se  Se30  1  0.22363142  0.11018689  0.82305694  1
  Se  Se31  1  0.75000000  0.90365344  0.59634656  1
  Se  Se32  1  0.25000000  0.40365344  0.90365344  1
  Se  Se33  1  0.27636858  0.17694306  0.11018689  1
  Se  Se34  1  0.22363142  0.38981311  0.32305694  1
  Se  Se35  1  0.77636858  0.38981311  0.32305694  1
  Se  Se36  1  0.27636858  0.67694306  0.38981311  1
  Se  Se37  1  0.27636858  0.82305694  0.88981311  1
  Se  Se38  1  0.75000000  0.40365344  0.90365344  1
  Se  Se39  1  0.72363142  0.67694306  0.38981311  1
  Se  Se40  1  0.27636858  0.32305694  0.61018689  1
  Se  Se41  1  0.77636858  0.88981311  0.17694306  1
  Se  Se42  1  0.75000000  0.09634656  0.40365344  1
  Se  Se43  1  0.22363142  0.61018689  0.67694306  1
  Se  Se44  1  0.75000000  0.59634656  0.09634656  1
  Se  Se45  1  0.72363142  0.17694306  0.11018689  1
  Se  Se46  1  0.25000000  0.90365344  0.59634656  1
  Se  Se47  1  0.77636858  0.11018689  0.82305694  1
