# generated using pymatgen
data_RbYbBr3
_symmetry_space_group_name_H-M   'P 1'
_cell_length_a   7.81896890
_cell_length_b   8.09213764
_cell_length_c   11.28297161
_cell_angle_alpha   90.00000000
_cell_angle_beta   90.00000000
_cell_angle_gamma   90.00000000
_symmetry_Int_Tables_number   1
_chemical_formula_structural   RbYbBr3
_chemical_formula_sum   'Rb4 Yb4 Br12'
_cell_volume   713.89812649
_cell_formula_units_Z   4
loop_
 _symmetry_equiv_pos_site_id
 _symmetry_equiv_pos_as_xyz
  1  'x, y, z'
loop_
 _atom_site_type_symbol
 _atom_site_label
 _atom_site_symmetry_multiplicity
 _atom_site_fract_x
 _atom_site_fract_y
 _atom_site_fract_z
 _atom_site_occupancy
  Yb  Yb0  1  0.50000000  0.00000000  0.50000000  1
  Yb  Yb1  1  0.50000000  0.00000000  0.00000000  1
  Yb  Yb2  1  0.00000000  0.50000000  0.50000000  1
  Yb  Yb3  1  0.00000000  0.50000000  0.00000000  1
  Rb  Rb4  1  0.48437921  0.55940410  0.75000000  1
  Rb  Rb5  1  0.51562079  0.44059590  0.25000000  1
  Rb  Rb6  1  0.98437921  0.94059590  0.25000000  1
  Rb  Rb7  1  0.01562079  0.05940410  0.75000000  1
  Br  Br8  1  0.29901165  0.29616049  0.96052347  1
  Br  Br9  1  0.42432194  0.01598394  0.25000000  1
  Br  Br10  1  0.57567806  0.98401606  0.75000000  1
  Br  Br11  1  0.07567806  0.51598394  0.25000000  1
  Br  Br12  1  0.70098835  0.70383951  0.03947653  1
  Br  Br13  1  0.79901165  0.20383951  0.03947653  1
  Br  Br14  1  0.92432194  0.48401606  0.75000000  1
  Br  Br15  1  0.20098835  0.79616049  0.53947653  1
  Br  Br16  1  0.70098835  0.70383951  0.46052347  1
  Br  Br17  1  0.79901165  0.20383951  0.46052347  1
  Br  Br18  1  0.29901165  0.29616049  0.53947653  1
  Br  Br19  1  0.20098835  0.79616049  0.96052347  1
