# generated using pymatgen
data_K2CuBr3
_symmetry_space_group_name_H-M   'P 1'
_cell_length_a   4.36097922
_cell_length_b   12.81371908
_cell_length_c   13.38730740
_cell_angle_alpha   90.00000000
_cell_angle_beta   90.00000000
_cell_angle_gamma   90.00000000
_symmetry_Int_Tables_number   1
_chemical_formula_structural   K2CuBr3
_chemical_formula_sum   'K8 Cu4 Br12'
_cell_volume   748.08759227
_cell_formula_units_Z   4
loop_
 _symmetry_equiv_pos_site_id
 _symmetry_equiv_pos_as_xyz
  1  'x, y, z'
loop_
 _atom_site_type_symbol
 _atom_site_label
 _atom_site_symmetry_multiplicity
 _atom_site_fract_x
 _atom_site_fract_y
 _atom_site_fract_z
 _atom_site_occupancy
  K  K0  1  0.25000000  0.17595747  0.48416652  1
  K  K1  1  0.25000000  0.51196710  0.67818142  1
  K  K2  1  0.75000000  0.82404253  0.51583348  1
  K  K3  1  0.75000000  0.48803290  0.32181858  1
  K  K4  1  0.75000000  0.98803290  0.17818142  1
  K  K5  1  0.25000000  0.67595747  0.01583348  1
  K  K6  1  0.75000000  0.32404253  0.98416652  1
  K  K7  1  0.25000000  0.01196710  0.82181858  1
  Cu  Cu8  1  0.75000000  0.74550333  0.80357150  1
  Cu  Cu9  1  0.75000000  0.24550333  0.69642850  1
  Cu  Cu10  1  0.25000000  0.25449667  0.19642850  1
  Cu  Cu11  1  0.25000000  0.75449667  0.30357150  1
  Br  Br12  1  0.75000000  0.72531551  0.20959642  1
  Br  Br13  1  0.75000000  0.22531551  0.29040358  1
  Br  Br14  1  0.25000000  0.43847540  0.13902101  1
  Br  Br15  1  0.25000000  0.93847540  0.36097899  1
  Br  Br16  1  0.25000000  0.77468449  0.70959642  1
  Br  Br17  1  0.25000000  0.27468449  0.79040358  1
  Br  Br18  1  0.25000000  0.63246595  0.44524103  1
  Br  Br19  1  0.25000000  0.13246595  0.05475897  1
  Br  Br20  1  0.75000000  0.06152460  0.63902101  1
  Br  Br21  1  0.75000000  0.86753405  0.94524103  1
  Br  Br22  1  0.75000000  0.36753405  0.55475897  1
  Br  Br23  1  0.75000000  0.56152460  0.86097899  1
