# generated using pymatgen
data_K2SnCl6
_symmetry_space_group_name_H-M   'P 1'
_cell_length_a   7.22883297
_cell_length_b   7.23817560
_cell_length_c   10.29790220
_cell_angle_alpha   90.44875732
_cell_angle_beta   90.00000000
_cell_angle_gamma   90.00000000
_symmetry_Int_Tables_number   1
_chemical_formula_structural   K2SnCl6
_chemical_formula_sum   'K4 Sn2 Cl12'
_cell_volume   538.80640205
_cell_formula_units_Z   2
loop_
 _symmetry_equiv_pos_site_id
 _symmetry_equiv_pos_as_xyz
  1  'x, y, z'
loop_
 _atom_site_type_symbol
 _atom_site_label
 _atom_site_symmetry_multiplicity
 _atom_site_fract_x
 _atom_site_fract_y
 _atom_site_fract_z
 _atom_site_occupancy
  K  K0  1  0.47257226  0.00658872  0.74498057  1
  K  K1  1  0.52742774  0.99341128  0.25501943  1
  K  K2  1  0.02742774  0.50658872  0.24498057  1
  K  K3  1  0.97257226  0.49341128  0.75501943  1
  Sn  Sn4  1  0.50000000  0.50000000  0.50000000  1
  Sn  Sn5  1  0.00000000  0.00000000  0.00000000  1
  Cl  Cl6  1  0.73011317  0.20761292  0.98157185  1
  Cl  Cl7  1  0.20937988  0.26823539  0.97752882  1
  Cl  Cl8  1  0.76988683  0.70761292  0.48157185  1
  Cl  Cl9  1  0.23011317  0.29238708  0.51842815  1
  Cl  Cl10  1  0.29062012  0.76823539  0.47752882  1
  Cl  Cl11  1  0.70937988  0.23176461  0.52247118  1
  Cl  Cl12  1  0.00128639  0.95683351  0.76190573  1
  Cl  Cl13  1  0.79062012  0.73176461  0.02247118  1
  Cl  Cl14  1  0.99871361  0.04316649  0.23809427  1
  Cl  Cl15  1  0.26988683  0.79238708  0.01842815  1
  Cl  Cl16  1  0.50128639  0.54316649  0.73809427  1
  Cl  Cl17  1  0.49871361  0.45683351  0.26190573  1
