# generated using pymatgen
data_RbPSe3
_symmetry_space_group_name_H-M   'P 1'
_cell_length_a   7.60059898
_cell_length_b   7.60059937
_cell_length_c   19.60394823
_cell_angle_alpha   90.00000000
_cell_angle_beta   90.00000000
_cell_angle_gamma   119.99999831
_symmetry_Int_Tables_number   1
_chemical_formula_structural   RbPSe3
_chemical_formula_sum   'Rb6 P6 Se18'
_cell_volume   980.77603719
_cell_formula_units_Z   6
loop_
 _symmetry_equiv_pos_site_id
 _symmetry_equiv_pos_as_xyz
  1  'x, y, z'
loop_
 _atom_site_type_symbol
 _atom_site_label
 _atom_site_symmetry_multiplicity
 _atom_site_fract_x
 _atom_site_fract_y
 _atom_site_fract_z
 _atom_site_occupancy
  Rb  Rb0  1  0.58230509  0.26868343  0.24903280  1
  Rb  Rb1  1  0.31362165  0.73131657  0.41763420  1
  Rb  Rb2  1  0.41769491  0.68637835  0.08430020  1
  Rb  Rb3  1  0.73131657  0.31362165  0.58236580  1
  Rb  Rb4  1  0.68637835  0.41769491  0.91569980  1
  Rb  Rb5  1  0.26868343  0.58230509  0.75096720  1
  P  P6  1  0.92445049  0.89760131  0.71923312  1
  P  P7  1  0.10239869  0.02684919  0.05256612  1
  P  P8  1  0.02684919  0.10239869  0.94743388  1
  P  P9  1  0.07554951  0.97315081  0.61410088  1
  P  P10  1  0.89760131  0.92445049  0.28076688  1
  P  P11  1  0.97315081  0.07554951  0.38589912  1
  Se  Se12  1  0.29908822  0.25533569  0.39289948  1
  Se  Se13  1  0.70091178  0.95624747  0.94043352  1
  Se  Se14  1  0.84233323  0.76048064  0.44676728  1
  Se  Se15  1  0.15766677  0.91814741  0.88656672  1
  Se  Se16  1  0.21943098  0.79682473  0.59186318  1
  Se  Se17  1  0.08185259  0.23951936  0.21989972  1
  Se  Se18  1  0.95624747  0.70091178  0.05956648  1
  Se  Se19  1  0.23951936  0.08185259  0.78010028  1
  Se  Se20  1  0.79682473  0.21943098  0.40813682  1
  Se  Se21  1  0.78056902  0.57739375  0.74147082  1
  Se  Se22  1  0.04375253  0.74466431  0.27376752  1
  Se  Se23  1  0.42260625  0.20317527  0.07480382  1
  Se  Se24  1  0.20317527  0.42260625  0.92519618  1
  Se  Se25  1  0.25533569  0.29908822  0.60710052  1
  Se  Se26  1  0.57739375  0.78056902  0.25852918  1
  Se  Se27  1  0.91814741  0.15766677  0.11343328  1
  Se  Se28  1  0.76048064  0.84233323  0.55323272  1
  Se  Se29  1  0.74466431  0.04375253  0.72623248  1
