# generated using pymatgen
data_HfHg3(SeCl3)2
_symmetry_space_group_name_H-M   'P 1'
_cell_length_a   6.75491685
_cell_length_b   7.72784736
_cell_length_c   13.47936450
_cell_angle_alpha   90.00000000
_cell_angle_beta   91.77752039
_cell_angle_gamma   90.00000000
_symmetry_Int_Tables_number   1
_chemical_formula_structural   HfHg3(SeCl3)2
_chemical_formula_sum   'Hf2 Hg6 Se4 Cl12'
_cell_volume   703.29726841
_cell_formula_units_Z   2
loop_
 _symmetry_equiv_pos_site_id
 _symmetry_equiv_pos_as_xyz
  1  'x, y, z'
loop_
 _atom_site_type_symbol
 _atom_site_label
 _atom_site_symmetry_multiplicity
 _atom_site_fract_x
 _atom_site_fract_y
 _atom_site_fract_z
 _atom_site_occupancy
  Hf  Hf0  1  0.50000000  0.00000000  0.00000000  1
  Hf  Hf1  1  0.50000000  0.50000000  0.50000000  1
  Hg  Hg2  1  0.99375995  0.70476273  0.73846196  1
  Hg  Hg3  1  0.00000000  0.00000000  0.50000000  1
  Hg  Hg4  1  0.00624005  0.20476273  0.76153804  1
  Hg  Hg5  1  0.00624005  0.29523727  0.26153804  1
  Hg  Hg6  1  0.99375995  0.79523727  0.23846196  1
  Hg  Hg7  1  0.00000000  0.50000000  0.00000000  1
  Se  Se8  1  0.81987927  0.03695488  0.33094248  1
  Se  Se9  1  0.18012073  0.96304512  0.66905752  1
  Se  Se10  1  0.81987927  0.46304512  0.83094248  1
  Se  Se11  1  0.18012073  0.53695488  0.16905752  1
  Cl  Cl12  1  0.19410313  0.85164507  0.94224217  1
  Cl  Cl13  1  0.80589687  0.35164507  0.55775783  1
  Cl  Cl14  1  0.63605442  0.72536802  0.06525608  1
  Cl  Cl15  1  0.63605442  0.77463198  0.56525608  1
  Cl  Cl16  1  0.35249408  0.44959110  0.66225275  1
  Cl  Cl17  1  0.35249408  0.05040890  0.16225275  1
  Cl  Cl18  1  0.64750592  0.55040890  0.33774725  1
  Cl  Cl19  1  0.36394558  0.27463198  0.93474392  1
  Cl  Cl20  1  0.19410313  0.64835493  0.44224217  1
  Cl  Cl21  1  0.64750592  0.94959110  0.83774725  1
  Cl  Cl22  1  0.80589687  0.14835493  0.05775783  1
  Cl  Cl23  1  0.36394558  0.22536802  0.43474392  1
