# generated using pymatgen
data_K2Sm2As2Se9
_symmetry_space_group_name_H-M   'P 1'
_cell_length_a   8.54222327
_cell_length_b   17.65439901
_cell_length_c   22.94636556
_cell_angle_alpha   90.00000000
_cell_angle_beta   90.00000000
_cell_angle_gamma   90.00000000
_symmetry_Int_Tables_number   1
_chemical_formula_structural   K2Sm2As2Se9
_chemical_formula_sum   'K16 Sm16 As16 Se72'
_cell_volume   3460.49132208
_cell_formula_units_Z   8
loop_
 _symmetry_equiv_pos_site_id
 _symmetry_equiv_pos_as_xyz
  1  'x, y, z'
loop_
 _atom_site_type_symbol
 _atom_site_label
 _atom_site_symmetry_multiplicity
 _atom_site_fract_x
 _atom_site_fract_y
 _atom_site_fract_z
 _atom_site_occupancy
  K  K0  1  0.50000000  0.50000000  0.50000000  1
  K  K1  1  0.50067478  0.90906390  0.77549082  1
  K  K2  1  0.49932522  0.59093610  0.27549082  1
  K  K3  1  0.00067478  0.59093610  0.27549082  1
  K  K4  1  0.50000000  0.00000000  0.50000000  1
  K  K5  1  0.00067478  0.09093610  0.22450918  1
  K  K6  1  0.00000000  0.50000000  0.50000000  1
  K  K7  1  0.00000000  0.00000000  0.00000000  1
  K  K8  1  0.50000000  0.00000000  0.00000000  1
  K  K9  1  0.00000000  0.50000000  0.00000000  1
  K  K10  1  0.50000000  0.50000000  0.00000000  1
  K  K11  1  0.49932522  0.09093610  0.22450918  1
  K  K12  1  0.99932522  0.40906390  0.72450918  1
  K  K13  1  0.50067478  0.40906390  0.72450918  1
  K  K14  1  0.00000000  0.00000000  0.50000000  1
  K  K15  1  0.99932522  0.90906390  0.77549082  1
  Sm  Sm16  1  0.49906045  0.74772442  0.93175780  1
  Sm  Sm17  1  0.49711710  0.32752922  0.32510160  1
  Sm  Sm18  1  0.50093955  0.25227558  0.06824220  1
  Sm  Sm19  1  0.99906045  0.75227558  0.43175780  1
  Sm  Sm20  1  0.50288290  0.67247078  0.67489840  1
  Sm  Sm21  1  0.99906045  0.25227558  0.06824220  1
  Sm  Sm22  1  0.99711710  0.67247078  0.67489840  1
  Sm  Sm23  1  0.00093955  0.74772442  0.93175780  1
  Sm  Sm24  1  0.00288290  0.32752922  0.32510160  1
  Sm  Sm25  1  0.49711710  0.82752922  0.17489840  1
  Sm  Sm26  1  0.50093955  0.75227558  0.43175780  1
  Sm  Sm27  1  0.00288290  0.82752922  0.17489840  1
  Sm  Sm28  1  0.00093955  0.24772442  0.56824220  1
  Sm  Sm29  1  0.99711710  0.17247078  0.82510160  1
  Sm  Sm30  1  0.49906045  0.24772442  0.56824220  1
  Sm  Sm31  1  0.50288290  0.17247078  0.82510160  1
  As  As32  1  0.75000000  0.10727725  0.66696662  1
  As  As33  1  0.75000000  0.43267792  0.15330781  1
  As  As34  1  0.75000000  0.93267792  0.34669219  1
  As  As35  1  0.25000000  0.65997211  0.09824592  1
  As  As36  1  0.25000000  0.39272275  0.16696662  1
  As  As37  1  0.25000000  0.06732208  0.65330781  1
  As  As38  1  0.25000000  0.56732208  0.84669219  1
  As  As39  1  0.25000000  0.86899889  0.61581267  1
  As  As40  1  0.25000000  0.15997211  0.40175408  1
  As  As41  1  0.75000000  0.84002789  0.59824592  1
  As  As42  1  0.75000000  0.13100111  0.38418733  1
  As  As43  1  0.75000000  0.60727725  0.83303338  1
  As  As44  1  0.25000000  0.36899889  0.88418733  1
  As  As45  1  0.75000000  0.34002789  0.90175408  1
  As  As46  1  0.75000000  0.63100111  0.11581267  1
  As  As47  1  0.25000000  0.89272275  0.33303338  1
  Se  Se48  1  0.25000000  0.85541410  0.96801003  1
  Se  Se49  1  0.25000000  0.44364133  0.29229288  1
  Se  Se50  1  0.02016357  0.81699072  0.31042178  1
  Se  Se51  1  0.75000000  0.41134897  0.39300790  1
  Se  Se52  1  0.95670577  0.53183586  0.14010849  1
  Se  Se53  1  0.75000000  0.43214350  0.28785047  1
  Se  Se54  1  0.75000000  0.84685005  0.98370189  1
  Se  Se55  1  0.75000000  0.62887184  0.93994117  1
  Se  Se56  1  0.75000000  0.79084148  0.69804435  1
  Se  Se57  1  0.75000000  0.21050505  0.29606918  1
  Se  Se58  1  0.25000000  0.12717111  0.55549455  1
  Se  Se59  1  0.48439099  0.72872395  0.06578114  1
  Se  Se60  1  0.54329423  0.03183586  0.35989151  1
  Se  Se61  1  0.98439099  0.27127605  0.93421886  1
  Se  Se62  1  0.25000000  0.90588008  0.10582486  1
  Se  Se63  1  0.25000000  0.15314995  0.01629811  1
  Se  Se64  1  0.95670577  0.03183586  0.35989151  1
  Se  Se65  1  0.25000000  0.58865103  0.60699210  1
  Se  Se66  1  0.25000000  0.82902515  0.86498980  1
  Se  Se67  1  0.25000000  0.20915852  0.30195565  1
  Se  Se68  1  0.45670577  0.96816414  0.64010849  1
  Se  Se69  1  0.25000000  0.40588008  0.39417514  1
  Se  Se70  1  0.02016357  0.31699072  0.18957822  1
  Se  Se71  1  0.75000000  0.29084148  0.80195565  1
  Se  Se72  1  0.25000000  0.94364133  0.20770712  1
  Se  Se73  1  0.75000000  0.12887184  0.56005883  1
  Se  Se74  1  0.75000000  0.64458590  0.46801003  1
  Se  Se75  1  0.25000000  0.15831232  0.12129635  1
  Se  Se76  1  0.75000000  0.87282889  0.44450545  1
  Se  Se77  1  0.75000000  0.93214350  0.21214953  1
  Se  Se78  1  0.25000000  0.35541410  0.53198997  1
  Se  Se79  1  0.98439099  0.77127605  0.56578114  1
  Se  Se80  1  0.75000000  0.71050505  0.20393082  1
  Se  Se81  1  0.25000000  0.06785650  0.78785047  1
  Se  Se82  1  0.25000000  0.65831232  0.37870365  1
  Se  Se83  1  0.25000000  0.28949495  0.79606918  1
  Se  Se84  1  0.51560901  0.27127605  0.93421886  1
  Se  Se85  1  0.75000000  0.09411992  0.89417514  1
  Se  Se86  1  0.52016357  0.18300928  0.68957822  1
  Se  Se87  1  0.25000000  0.70915852  0.19804435  1
  Se  Se88  1  0.25000000  0.87112816  0.43994117  1
  Se  Se89  1  0.47983643  0.81699072  0.31042178  1
  Se  Se90  1  0.75000000  0.55635867  0.70770712  1
  Se  Se91  1  0.25000000  0.78949495  0.70393082  1
  Se  Se92  1  0.75000000  0.59411992  0.60582486  1
  Se  Se93  1  0.25000000  0.65314995  0.48370189  1
  Se  Se94  1  0.25000000  0.56785650  0.71214953  1
  Se  Se95  1  0.45670577  0.46816414  0.85989151  1
  Se  Se96  1  0.75000000  0.14458590  0.03198997  1
  Se  Se97  1  0.51560901  0.77127605  0.56578114  1
  Se  Se98  1  0.52016357  0.68300928  0.81042178  1
  Se  Se99  1  0.25000000  0.62717111  0.94450545  1
  Se  Se100  1  0.75000000  0.34685005  0.51629811  1
  Se  Se101  1  0.75000000  0.17097485  0.13501020  1
  Se  Se102  1  0.25000000  0.32902515  0.63501020  1
  Se  Se103  1  0.47983643  0.31699072  0.18957822  1
  Se  Se104  1  0.01560901  0.72872395  0.06578114  1
  Se  Se105  1  0.97983643  0.68300928  0.81042178  1
  Se  Se106  1  0.04329423  0.46816414  0.85989151  1
  Se  Se107  1  0.25000000  0.37112816  0.06005883  1
  Se  Se108  1  0.75000000  0.84168768  0.87870365  1
  Se  Se109  1  0.75000000  0.37282889  0.05549455  1
  Se  Se110  1  0.75000000  0.05635867  0.79229288  1
  Se  Se111  1  0.01560901  0.22872395  0.43421886  1
  Se  Se112  1  0.97983643  0.18300928  0.68957822  1
  Se  Se113  1  0.25000000  0.08865103  0.89300790  1
  Se  Se114  1  0.54329423  0.53183586  0.14010849  1
  Se  Se115  1  0.75000000  0.91134897  0.10699210  1
  Se  Se116  1  0.48439099  0.22872395  0.43421886  1
  Se  Se117  1  0.04329423  0.96816414  0.64010849  1
  Se  Se118  1  0.75000000  0.67097485  0.36498980  1
  Se  Se119  1  0.75000000  0.34168768  0.62129635  1
