# generated using pymatgen
data_Sm3Mg13Zn30
_symmetry_space_group_name_H-M   'P 1'
_cell_length_a   14.64233030
_cell_length_b   14.64232997
_cell_length_c   8.66283575
_cell_angle_alpha   90.00000000
_cell_angle_beta   90.00000000
_cell_angle_gamma   120.00000074
_symmetry_Int_Tables_number   1
_chemical_formula_structural   Sm3Mg13Zn30
_chemical_formula_sum   'Sm6 Mg26 Zn60'
_cell_volume   1608.46308311
_cell_formula_units_Z   2
loop_
 _symmetry_equiv_pos_site_id
 _symmetry_equiv_pos_as_xyz
  1  'x, y, z'
loop_
 _atom_site_type_symbol
 _atom_site_label
 _atom_site_symmetry_multiplicity
 _atom_site_fract_x
 _atom_site_fract_y
 _atom_site_fract_z
 _atom_site_occupancy
  Sm  Sm0  1  0.45911154  0.91822307  0.25000000  1
  Sm  Sm1  1  0.91822307  0.45911154  0.75000000  1
  Sm  Sm2  1  0.08177693  0.54088846  0.25000000  1
  Sm  Sm3  1  0.54088846  0.45911154  0.75000000  1
  Sm  Sm4  1  0.54088846  0.08177693  0.75000000  1
  Sm  Sm5  1  0.45911154  0.54088846  0.25000000  1
  Mg  Mg6  1  0.88419537  0.11580463  0.06516109  1
  Mg  Mg7  1  0.77193918  0.22806082  0.94792279  1
  Mg  Mg8  1  0.88419537  0.76839075  0.06516109  1
  Mg  Mg9  1  0.88419537  0.76839075  0.43483891  1
  Mg  Mg10  1  0.33333300  0.66666700  0.75000000  1
  Mg  Mg11  1  0.77193918  0.54387837  0.94792279  1
  Mg  Mg12  1  0.77193918  0.22806082  0.55207721  1
  Mg  Mg13  1  0.11580463  0.23160925  0.56516109  1
  Mg  Mg14  1  0.23160925  0.11580463  0.43483891  1
  Mg  Mg15  1  0.22806082  0.77193918  0.44792279  1
  Mg  Mg16  1  0.76839075  0.88419537  0.56516109  1
  Mg  Mg17  1  0.45612163  0.22806082  0.94792279  1
  Mg  Mg18  1  0.54387837  0.77193918  0.05207721  1
  Mg  Mg19  1  0.22806082  0.45612163  0.44792279  1
  Mg  Mg20  1  0.23160925  0.11580463  0.06516109  1
  Mg  Mg21  1  0.66666700  0.33333300  0.25000000  1
  Mg  Mg22  1  0.11580463  0.88419537  0.93483891  1
  Mg  Mg23  1  0.22806082  0.77193918  0.05207721  1
  Mg  Mg24  1  0.22806082  0.45612163  0.05207721  1
  Mg  Mg25  1  0.11580463  0.88419537  0.56516109  1
  Mg  Mg26  1  0.77193918  0.54387837  0.55207721  1
  Mg  Mg27  1  0.45612163  0.22806082  0.55207721  1
  Mg  Mg28  1  0.76839075  0.88419537  0.93483891  1
  Mg  Mg29  1  0.11580463  0.23160925  0.93483891  1
  Mg  Mg30  1  0.88419537  0.11580463  0.43483891  1
  Mg  Mg31  1  0.54387837  0.77193918  0.44792279  1
  Zn  Zn32  1  0.29024896  0.40858732  0.75000000  1
  Zn  Zn33  1  0.13761643  0.56880822  0.91279793  1
  Zn  Zn34  1  0.11833835  0.70975104  0.75000000  1
  Zn  Zn35  1  0.59141268  0.70975104  0.75000000  1
  Zn  Zn36  1  0.56880822  0.13761643  0.08720207  1
  Zn  Zn37  1  0.30310628  0.23911129  0.75000000  1
  Zn  Zn38  1  0.64132991  0.00000000  0.50000000  1
  Zn  Zn39  1  0.06399499  0.76088871  0.25000000  1
  Zn  Zn40  1  0.66666700  0.33333300  0.59957727  1
  Zn  Zn41  1  0.29024896  0.88166165  0.75000000  1
  Zn  Zn42  1  0.93600501  0.69689372  0.75000000  1
  Zn  Zn43  1  0.93854462  0.06145538  0.75000000  1
  Zn  Zn44  1  0.64132991  0.00000000  0.00000000  1
  Zn  Zn45  1  0.56880822  0.43119178  0.41279793  1
  Zn  Zn46  1  0.76088871  0.69689372  0.75000000  1
  Zn  Zn47  1  0.43119178  0.56880822  0.91279793  1
  Zn  Zn48  1  0.00000000  0.35867009  0.50000000  1
  Zn  Zn49  1  0.33333300  0.66666700  0.09957727  1
  Zn  Zn50  1  0.56880822  0.43119178  0.08720207  1
  Zn  Zn51  1  0.43119178  0.56880822  0.58720207  1
  Zn  Zn52  1  0.93600501  0.23911129  0.75000000  1
  Zn  Zn53  1  0.70975104  0.11833835  0.25000000  1
  Zn  Zn54  1  0.69689372  0.93600501  0.25000000  1
  Zn  Zn55  1  0.06145538  0.93854462  0.25000000  1
  Zn  Zn56  1  0.43119178  0.86238357  0.91279793  1
  Zn  Zn57  1  0.93854462  0.87708924  0.75000000  1
  Zn  Zn58  1  0.35867009  0.00000000  0.00000000  1
  Zn  Zn59  1  0.23911129  0.93600501  0.25000000  1
  Zn  Zn60  1  0.66666700  0.33333300  0.90042273  1
  Zn  Zn61  1  0.33333300  0.66666700  0.40042273  1
  Zn  Zn62  1  0.00000000  0.35867009  0.00000000  1
  Zn  Zn63  1  0.35867009  0.35867009  0.00000000  1
  Zn  Zn64  1  0.70975104  0.59141268  0.25000000  1
  Zn  Zn65  1  0.88166165  0.29024896  0.25000000  1
  Zn  Zn66  1  0.00000000  0.00000000  0.50000000  1
  Zn  Zn67  1  0.13761643  0.56880822  0.58720207  1
  Zn  Zn68  1  0.11833835  0.40858732  0.75000000  1
  Zn  Zn69  1  0.56880822  0.13761643  0.41279793  1
  Zn  Zn70  1  0.76088871  0.06399499  0.75000000  1
  Zn  Zn71  1  0.00000000  0.64132991  0.00000000  1
  Zn  Zn72  1  0.86238357  0.43119178  0.08720207  1
  Zn  Zn73  1  0.06399499  0.30310628  0.25000000  1
  Zn  Zn74  1  0.59141268  0.88166165  0.75000000  1
  Zn  Zn75  1  0.64132991  0.64132991  0.50000000  1
  Zn  Zn76  1  0.69689372  0.76088871  0.25000000  1
  Zn  Zn77  1  0.35867009  0.35867009  0.50000000  1
  Zn  Zn78  1  0.40858732  0.29024896  0.25000000  1
  Zn  Zn79  1  0.88166165  0.59141268  0.25000000  1
  Zn  Zn80  1  0.64132991  0.64132991  0.00000000  1
  Zn  Zn81  1  0.12291076  0.06145538  0.75000000  1
  Zn  Zn82  1  0.30310628  0.06399499  0.75000000  1
  Zn  Zn83  1  0.00000000  0.64132991  0.50000000  1
  Zn  Zn84  1  0.06145538  0.12291076  0.25000000  1
  Zn  Zn85  1  0.87708924  0.93854462  0.25000000  1
  Zn  Zn86  1  0.00000000  0.00000000  0.00000000  1
  Zn  Zn87  1  0.35867009  0.00000000  0.50000000  1
  Zn  Zn88  1  0.43119178  0.86238357  0.58720207  1
  Zn  Zn89  1  0.23911129  0.30310628  0.25000000  1
  Zn  Zn90  1  0.86238357  0.43119178  0.41279793  1
  Zn  Zn91  1  0.40858732  0.11833835  0.25000000  1
