# generated using pymatgen
data_Na2SnSe3
_symmetry_space_group_name_H-M   'P 1'
_cell_length_a   12.63012296
_cell_length_b   14.18343369
_cell_length_c   24.25102786
_cell_angle_alpha   90.00000000
_cell_angle_beta   90.00000000
_cell_angle_gamma   90.00000000
_symmetry_Int_Tables_number   1
_chemical_formula_structural   Na2SnSe3
_chemical_formula_sum   'Na48 Sn24 Se72'
_cell_volume   4344.29303318
_cell_formula_units_Z   24
loop_
 _symmetry_equiv_pos_site_id
 _symmetry_equiv_pos_as_xyz
  1  'x, y, z'
loop_
 _atom_site_type_symbol
 _atom_site_label
 _atom_site_symmetry_multiplicity
 _atom_site_fract_x
 _atom_site_fract_y
 _atom_site_fract_z
 _atom_site_occupancy
  Na  Na0  1  0.87877481  0.17008909  0.83167625  1
  Na  Na1  1  0.57336322  0.62249025  0.48363691  1
  Na  Na2  1  0.07567221  0.90703536  0.65387448  1
  Na  Na3  1  0.42432779  0.40703536  0.65387448  1
  Na  Na4  1  0.93668171  0.60719650  0.99186447  1
  Na  Na5  1  0.61655012  0.11402363  0.17261732  1
  Na  Na6  1  0.62122519  0.67008909  0.66832375  1
  Na  Na7  1  0.07336322  0.87750975  0.98363691  1
  Na  Na8  1  0.07192530  0.40081099  0.16866399  1
  Na  Na9  1  0.11655012  0.38597637  0.82738268  1
  Na  Na10  1  0.57336322  0.62249025  0.01636309  1
  Na  Na11  1  0.61655012  0.11402363  0.32738268  1
  Na  Na12  1  0.07336322  0.87750975  0.51636309  1
  Na  Na13  1  0.92807470  0.59918901  0.83133601  1
  Na  Na14  1  0.62122519  0.67008909  0.83167625  1
  Na  Na15  1  0.37877481  0.32991091  0.33167625  1
  Na  Na16  1  0.93668171  0.60719650  0.50813553  1
  Na  Na17  1  0.42432779  0.40703536  0.84612552  1
  Na  Na18  1  0.87877481  0.17008909  0.66832375  1
  Na  Na19  1  0.56331829  0.10719650  0.50813553  1
  Na  Na20  1  0.42663678  0.37750975  0.51636309  1
  Na  Na21  1  0.57192530  0.09918901  0.83133601  1
  Na  Na22  1  0.42807470  0.90081099  0.33133601  1
  Na  Na23  1  0.92432779  0.09296464  0.15387448  1
  Na  Na24  1  0.37877481  0.32991091  0.16832375  1
  Na  Na25  1  0.12122519  0.82991091  0.16832375  1
  Na  Na26  1  0.07567221  0.90703536  0.84612552  1
  Na  Na27  1  0.06331829  0.39280350  0.00813553  1
  Na  Na28  1  0.06331829  0.39280350  0.49186447  1
  Na  Na29  1  0.38344988  0.88597637  0.82738268  1
  Na  Na30  1  0.92663678  0.12249025  0.01636309  1
  Na  Na31  1  0.88344988  0.61402363  0.17261732  1
  Na  Na32  1  0.92807470  0.59918901  0.66866399  1
  Na  Na33  1  0.92432779  0.09296464  0.34612552  1
  Na  Na34  1  0.38344988  0.88597637  0.67261732  1
  Na  Na35  1  0.57567221  0.59296464  0.15387448  1
  Na  Na36  1  0.42807470  0.90081099  0.16866399  1
  Na  Na37  1  0.57567221  0.59296464  0.34612552  1
  Na  Na38  1  0.11655012  0.38597637  0.67261732  1
  Na  Na39  1  0.57192530  0.09918901  0.66866399  1
  Na  Na40  1  0.12122519  0.82991091  0.33167625  1
  Na  Na41  1  0.92663678  0.12249025  0.48363691  1
  Na  Na42  1  0.43668171  0.89280350  0.00813553  1
  Na  Na43  1  0.07192530  0.40081099  0.33133601  1
  Na  Na44  1  0.88344988  0.61402363  0.32738268  1
  Na  Na45  1  0.42663678  0.37750975  0.98363691  1
  Na  Na46  1  0.56331829  0.10719650  0.99186447  1
  Na  Na47  1  0.43668171  0.89280350  0.49186447  1
  Sn  Sn48  1  0.72021569  0.40871611  0.58273004  1
  Sn  Sn49  1  0.27978431  0.59128389  0.08273004  1
  Sn  Sn50  1  0.77978431  0.90871611  0.91726996  1
  Sn  Sn51  1  0.26917032  0.12389368  0.91609789  1
  Sn  Sn52  1  0.23082968  0.62389368  0.58390211  1
  Sn  Sn53  1  0.27325762  0.11792364  0.25000000  1
  Sn  Sn54  1  0.26917032  0.12389368  0.58390211  1
  Sn  Sn55  1  0.77978431  0.90871611  0.58273004  1
  Sn  Sn56  1  0.72021569  0.40871611  0.91726996  1
  Sn  Sn57  1  0.22021569  0.09128389  0.41726996  1
  Sn  Sn58  1  0.22674238  0.61792364  0.25000000  1
  Sn  Sn59  1  0.23082968  0.62389368  0.91609789  1
  Sn  Sn60  1  0.73082968  0.87610632  0.08390211  1
  Sn  Sn61  1  0.27425714  0.18170159  0.75000000  1
  Sn  Sn62  1  0.72574286  0.81829841  0.25000000  1
  Sn  Sn63  1  0.76917032  0.37610632  0.41609789  1
  Sn  Sn64  1  0.77325762  0.38207636  0.75000000  1
  Sn  Sn65  1  0.73082968  0.87610632  0.41609789  1
  Sn  Sn66  1  0.27978431  0.59128389  0.41726996  1
  Sn  Sn67  1  0.22021569  0.09128389  0.08273004  1
  Sn  Sn68  1  0.22574286  0.68170159  0.75000000  1
  Sn  Sn69  1  0.76917032  0.37610632  0.08390211  1
  Sn  Sn70  1  0.77425714  0.31829841  0.25000000  1
  Sn  Sn71  1  0.72674238  0.88207636  0.75000000  1
  Se  Se72  1  0.67264311  0.29890333  0.66786076  1
  Se  Se73  1  0.58505143  0.94505008  0.58549974  1
  Se  Se74  1  0.08505143  0.55494992  0.08549974  1
  Se  Se75  1  0.42978684  0.47332741  0.08730127  1
  Se  Se76  1  0.44081071  0.21401822  0.90731610  1
  Se  Se77  1  0.44081071  0.21401822  0.59268390  1
  Se  Se78  1  0.25432256  0.94145906  0.25000000  1
  Se  Se79  1  0.77095449  0.55310430  0.07293868  1
  Se  Se80  1  0.16649080  0.20068550  0.99953666  1
  Se  Se81  1  0.04560612  0.69287139  0.25000000  1
  Se  Se82  1  0.22904551  0.44689570  0.92706132  1
  Se  Se83  1  0.82735689  0.79890333  0.83213924  1
  Se  Se84  1  0.27095449  0.94689570  0.92706132  1
  Se  Se85  1  0.58769609  0.94537197  0.25000000  1
  Se  Se86  1  0.19465350  0.85721935  0.75000000  1
  Se  Se87  1  0.32735689  0.70109667  0.33213924  1
  Se  Se88  1  0.27095449  0.94689570  0.57293868  1
  Se  Se89  1  0.75432256  0.55854094  0.75000000  1
  Se  Se90  1  0.17264311  0.20109667  0.33213924  1
  Se  Se91  1  0.24567744  0.44145906  0.25000000  1
  Se  Se92  1  0.83350920  0.79931450  0.49953666  1
  Se  Se93  1  0.82735689  0.79890333  0.66786076  1
  Se  Se94  1  0.80534650  0.14278065  0.25000000  1
  Se  Se95  1  0.08769609  0.55462803  0.75000000  1
  Se  Se96  1  0.55918929  0.78598178  0.09268390  1
  Se  Se97  1  0.30534650  0.35721935  0.75000000  1
  Se  Se98  1  0.17264311  0.20109667  0.16786076  1
  Se  Se99  1  0.16649080  0.20068550  0.50046334  1
  Se  Se100  1  0.72904551  0.05310430  0.07293868  1
  Se  Se101  1  0.95439388  0.30712861  0.75000000  1
  Se  Se102  1  0.66649080  0.29931450  0.49953666  1
  Se  Se103  1  0.85954976  0.84203209  0.33323385  1
  Se  Se104  1  0.08505143  0.55494992  0.41450026  1
  Se  Se105  1  0.58505143  0.94505008  0.91450026  1
  Se  Se106  1  0.67264311  0.29890333  0.83213924  1
  Se  Se107  1  0.33350920  0.70068550  0.50046334  1
  Se  Se108  1  0.94081071  0.28598178  0.40731610  1
  Se  Se109  1  0.05918929  0.71401822  0.90731610  1
  Se  Se110  1  0.66649080  0.29931450  0.00046334  1
  Se  Se111  1  0.07021316  0.97332741  0.41269873  1
  Se  Se112  1  0.83350920  0.79931450  0.00046334  1
  Se  Se113  1  0.41230391  0.05462803  0.75000000  1
  Se  Se114  1  0.57021316  0.52667259  0.58730127  1
  Se  Se115  1  0.41494857  0.05494992  0.41450026  1
  Se  Se116  1  0.14045024  0.15796791  0.83323385  1
  Se  Se117  1  0.42978684  0.47332741  0.41269873  1
  Se  Se118  1  0.85954976  0.84203209  0.16676615  1
  Se  Se119  1  0.35954976  0.65796791  0.83323385  1
  Se  Se120  1  0.92978684  0.02667259  0.58730127  1
  Se  Se121  1  0.77095449  0.55310430  0.42706132  1
  Se  Se122  1  0.45439388  0.19287139  0.25000000  1
  Se  Se123  1  0.91230391  0.44537197  0.25000000  1
  Se  Se124  1  0.92978684  0.02667259  0.91269873  1
  Se  Se125  1  0.35954976  0.65796791  0.66676615  1
  Se  Se126  1  0.54560612  0.80712861  0.75000000  1
  Se  Se127  1  0.94081071  0.28598178  0.09268390  1
  Se  Se128  1  0.14045024  0.15796791  0.66676615  1
  Se  Se129  1  0.57021316  0.52667259  0.91269873  1
  Se  Se130  1  0.64045024  0.34203209  0.33323385  1
  Se  Se131  1  0.32735689  0.70109667  0.16786076  1
  Se  Se132  1  0.72904551  0.05310430  0.42706132  1
  Se  Se133  1  0.41494857  0.05494992  0.08549974  1
  Se  Se134  1  0.22904551  0.44689570  0.57293868  1
  Se  Se135  1  0.74567744  0.05854094  0.75000000  1
  Se  Se136  1  0.05918929  0.71401822  0.59268390  1
  Se  Se137  1  0.07021316  0.97332741  0.08730127  1
  Se  Se138  1  0.91494857  0.44505008  0.91450026  1
  Se  Se139  1  0.33350920  0.70068550  0.99953666  1
  Se  Se140  1  0.55918929  0.78598178  0.40731610  1
  Se  Se141  1  0.69465350  0.64278065  0.25000000  1
  Se  Se142  1  0.91494857  0.44505008  0.58549974  1
  Se  Se143  1  0.64045024  0.34203209  0.16676615  1
