# generated using pymatgen
data_Sm3Ga5O12
_symmetry_space_group_name_H-M   'P 1'
_cell_length_a   10.88299112
_cell_length_b   10.88299112
_cell_length_c   10.88299112
_cell_angle_alpha   109.47122065
_cell_angle_beta   109.47122065
_cell_angle_gamma   109.47122065
_symmetry_Int_Tables_number   1
_chemical_formula_structural   Sm3Ga5O12
_chemical_formula_sum   'Sm12 Ga20 O48'
_cell_volume   992.25417244
_cell_formula_units_Z   4
loop_
 _symmetry_equiv_pos_site_id
 _symmetry_equiv_pos_as_xyz
  1  'x, y, z'
loop_
 _atom_site_type_symbol
 _atom_site_label
 _atom_site_symmetry_multiplicity
 _atom_site_fract_x
 _atom_site_fract_y
 _atom_site_fract_z
 _atom_site_occupancy
  O  O0  1  0.29684024  0.47488919  0.37907081  1
  O  O1  1  0.02511081  0.32195105  0.90418162  1
  O  O2  1  0.12092919  0.59581838  0.91776944  1
  O  O3  1  0.20315976  0.58223056  0.17804895  1
  O  O4  1  0.20315976  0.12092919  0.02511081  1
  O  O5  1  0.58223056  0.17804895  0.20315976  1
  O  O6  1  0.59581838  0.17804895  0.47488919  1
  O  O7  1  0.17804895  0.20315976  0.58223056  1
  O  O8  1  0.90418162  0.37907081  0.58223056  1
  O  O9  1  0.32195105  0.91776944  0.29684024  1
  O  O10  1  0.91776944  0.29684024  0.32195105  1
  O  O11  1  0.02511081  0.20315976  0.12092919  1
  O  O12  1  0.17804895  0.47488919  0.59581838  1
  O  O13  1  0.58223056  0.90418162  0.37907081  1
  O  O14  1  0.12092919  0.02511081  0.20315976  1
  O  O15  1  0.47488919  0.59581838  0.17804895  1
  O  O16  1  0.37907081  0.58223056  0.90418162  1
  O  O17  1  0.90418162  0.02511081  0.32195105  1
  O  O18  1  0.59581838  0.91776944  0.12092919  1
  O  O19  1  0.09581838  0.62092919  0.41776944  1
  O  O20  1  0.91776944  0.12092919  0.59581838  1
  O  O21  1  0.37907081  0.29684024  0.47488919  1
  O  O22  1  0.32195105  0.90418162  0.02511081  1
  O  O23  1  0.29684024  0.32195105  0.91776944  1
  O  O24  1  0.70315976  0.52511081  0.62092919  1
  O  O25  1  0.97488919  0.67804895  0.09581838  1
  O  O26  1  0.87907081  0.40418162  0.08223056  1
  O  O27  1  0.79684024  0.41776944  0.82195105  1
  O  O28  1  0.79684024  0.87907081  0.97488919  1
  O  O29  1  0.41776944  0.82195105  0.79684024  1
  O  O30  1  0.40418162  0.82195105  0.52511081  1
  O  O31  1  0.82195105  0.79684024  0.41776944  1
  O  O32  1  0.70315976  0.67804895  0.08223056  1
  O  O33  1  0.67804895  0.09581838  0.97488919  1
  O  O34  1  0.62092919  0.70315976  0.52511081  1
  O  O35  1  0.52511081  0.62092919  0.70315976  1
  O  O36  1  0.08223056  0.87907081  0.40418162  1
  O  O37  1  0.40418162  0.08223056  0.87907081  1
  O  O38  1  0.09581838  0.97488919  0.67804895  1
  O  O39  1  0.62092919  0.41776944  0.09581838  1
  O  O40  1  0.52511081  0.40418162  0.82195105  1
  O  O41  1  0.87907081  0.97488919  0.79684024  1
  O  O42  1  0.41776944  0.09581838  0.62092919  1
  O  O43  1  0.82195105  0.52511081  0.40418162  1
  O  O44  1  0.97488919  0.79684024  0.87907081  1
  O  O45  1  0.08223056  0.70315976  0.67804895  1
  O  O46  1  0.67804895  0.08223056  0.70315976  1
  O  O47  1  0.47488919  0.37907081  0.29684024  1
  Ga  Ga48  1  0.25000000  0.12500000  0.87500000  1
  Ga  Ga49  1  0.75000000  0.87500000  0.12500000  1
  Ga  Ga50  1  0.37500000  0.25000000  0.62500000  1
  Ga  Ga51  1  0.62500000  0.37500000  0.25000000  1
  Ga  Ga52  1  0.12500000  0.75000000  0.87500000  1
  Ga  Ga53  1  0.87500000  0.12500000  0.75000000  1
  Ga  Ga54  1  0.75000000  0.37500000  0.62500000  1
  Ga  Ga55  1  0.37500000  0.62500000  0.75000000  1
  Ga  Ga56  1  0.12500000  0.87500000  0.25000000  1
  Ga  Ga57  1  0.87500000  0.25000000  0.12500000  1
  Ga  Ga58  1  0.62500000  0.75000000  0.37500000  1
  Ga  Ga59  1  0.25000000  0.62500000  0.37500000  1
  Ga  Ga60  1  0.50000000  0.50000000  0.50000000  1
  Ga  Ga61  1  0.50000000  0.50000000  0.00000000  1
  Ga  Ga62  1  0.50000000  0.00000000  0.50000000  1
  Ga  Ga63  1  0.00000000  0.50000000  0.50000000  1
  Ga  Ga64  1  0.50000000  0.00000000  0.00000000  1
  Ga  Ga65  1  0.00000000  0.00000000  0.50000000  1
  Ga  Ga66  1  0.00000000  0.50000000  0.00000000  1
  Ga  Ga67  1  0.00000000  0.00000000  0.00000000  1
  Sm  Sm68  1  0.25000000  0.87500000  0.62500000  1
  Sm  Sm69  1  0.87500000  0.62500000  0.25000000  1
  Sm  Sm70  1  0.62500000  0.87500000  0.75000000  1
  Sm  Sm71  1  0.87500000  0.75000000  0.62500000  1
  Sm  Sm72  1  0.62500000  0.25000000  0.87500000  1
  Sm  Sm73  1  0.75000000  0.62500000  0.87500000  1
  Sm  Sm74  1  0.75000000  0.12500000  0.37500000  1
  Sm  Sm75  1  0.12500000  0.37500000  0.75000000  1
  Sm  Sm76  1  0.37500000  0.12500000  0.25000000  1
  Sm  Sm77  1  0.12500000  0.25000000  0.37500000  1
  Sm  Sm78  1  0.37500000  0.75000000  0.12500000  1
  Sm  Sm79  1  0.25000000  0.37500000  0.12500000  1
