# generated using pymatgen
data_SnHg7(As2I3)2
_symmetry_space_group_name_H-M   'P 1'
_cell_length_a   13.50471037
_cell_length_b   13.50471037
_cell_length_c   13.50471037
_cell_angle_alpha   90.00000000
_cell_angle_beta   90.00000000
_cell_angle_gamma   90.00000000
_symmetry_Int_Tables_number   1
_chemical_formula_structural   SnHg7(As2I3)2
_chemical_formula_sum   'Sn4 Hg28 As16 I24'
_cell_volume   2462.95129350
_cell_formula_units_Z   4
loop_
 _symmetry_equiv_pos_site_id
 _symmetry_equiv_pos_as_xyz
  1  'x, y, z'
loop_
 _atom_site_type_symbol
 _atom_site_label
 _atom_site_symmetry_multiplicity
 _atom_site_fract_x
 _atom_site_fract_y
 _atom_site_fract_z
 _atom_site_occupancy
  Sn  Sn0  1  0.76497738  0.76497738  0.76497738  1
  Sn  Sn1  1  0.23502262  0.26497738  0.73502262  1
  Sn  Sn2  1  0.26497738  0.73502262  0.23502262  1
  Sn  Sn3  1  0.73502262  0.23502262  0.26497738  1
  Hg  Hg4  1  0.31830672  0.09797627  0.07647363  1
  Hg  Hg5  1  0.06880578  0.49978107  0.75105549  1
  Hg  Hg6  1  0.43119422  0.50021893  0.25105549  1
  Hg  Hg7  1  0.93119422  -0.00021893  0.74894451  1
  Hg  Hg8  1  0.53509768  0.46490232  0.96490232  1
  Hg  Hg9  1  0.68169328  0.59797627  0.42352637  1
  Hg  Hg10  1  0.57647363  0.18169328  0.90202373  1
  Hg  Hg11  1  0.03509768  0.03509768  0.03509768  1
  Hg  Hg12  1  0.18169328  0.90202373  0.57647363  1
  Hg  Hg13  1  0.24894451  0.56880578  1.00021893  1
  Hg  Hg14  1  0.90202373  0.57647363  0.18169328  1
  Hg  Hg15  1  0.25105549  0.43119422  0.50021893  1
  Hg  Hg16  1  0.74894451  0.93119422  -0.00021893  1
  Hg  Hg17  1  0.49978107  0.75105549  0.06880578  1
  Hg  Hg18  1  0.59797627  0.42352637  0.68169328  1
  Hg  Hg19  1  0.09797627  0.07647363  0.31830672  1
  Hg  Hg20  1  0.81830672  0.40202373  0.92352637  1
  Hg  Hg21  1  0.92352637  0.81830672  0.40202373  1
  Hg  Hg22  1  0.50021893  0.25105549  0.43119422  1
  Hg  Hg23  1  0.40202373  0.92352637  0.81830672  1
  Hg  Hg24  1  0.46490232  0.96490232  0.53509768  1
  Hg  Hg25  1  0.42352637  0.68169328  0.59797627  1
  Hg  Hg26  1  0.07647363  0.31830672  0.09797627  1
  Hg  Hg27  1  -0.00021893  0.74894451  0.93119422  1
  Hg  Hg28  1  0.56880578  1.00021893  0.24894451  1
  Hg  Hg29  1  0.96490232  0.53509768  0.46490232  1
  Hg  Hg30  1  0.75105549  0.06880578  0.49978107  1
  Hg  Hg31  1  1.00021893  0.24894451  0.56880578  1
  As  As32  1  0.96381857  0.46381857  0.03618143  1
  As  As33  1  0.53618143  0.53618143  0.53618143  1
  As  As34  1  0.07376736  0.42623264  0.57376736  1
  As  As35  1  0.06916244  0.56916244  0.93083756  1
  As  As36  1  0.85635704  0.64364296  0.35635704  1
  As  As37  1  0.64364296  0.35635704  0.85635704  1
  As  As38  1  0.03618143  0.96381857  0.46381857  1
  As  As39  1  0.43083756  0.43083756  0.43083756  1
  As  As40  1  0.14364296  0.14364296  0.14364296  1
  As  As41  1  0.57376736  0.07376736  0.42623264  1
  As  As42  1  0.56916244  0.93083756  0.06916244  1
  As  As43  1  0.93083756  0.06916244  0.56916244  1
  As  As44  1  0.42623264  0.57376736  0.07376736  1
  As  As45  1  0.35635704  0.85635704  0.64364296  1
  As  As46  1  0.92623264  0.92623264  0.92623264  1
  As  As47  1  0.46381857  0.03618143  0.96381857  1
  I  I48  1  0.52630683  0.73627462  0.31425173  1
  I  I49  1  0.78684908  0.18753184  0.05542773  1
  I  I50  1  0.71315092  0.81246816  0.55542773  1
  I  I51  1  0.81425173  0.97369317  0.26372538  1
  I  I52  1  0.68753184  0.44457227  0.21315092  1
  I  I53  1  0.18574827  0.47369317  0.23627462  1
  I  I54  1  0.55542773  0.71315092  0.81246816  1
  I  I55  1  0.44457227  0.21315092  0.68753184  1
  I  I56  1  0.76372538  0.68574827  0.02630683  1
  I  I57  1  0.23627462  0.18574827  0.47369317  1
  I  I58  1  0.47369317  0.23627462  0.18574827  1
  I  I59  1  0.28684908  0.31246816  0.94457227  1
  I  I60  1  0.31246816  0.94457227  0.28684908  1
  I  I61  1  0.68574827  0.02630683  0.76372538  1
  I  I62  1  0.05542773  0.78684908  0.18753184  1
  I  I63  1  0.94457227  0.28684908  0.31246816  1
  I  I64  1  0.02630683  0.76372538  0.68574827  1
  I  I65  1  0.73627462  0.31425173  0.52630683  1
  I  I66  1  0.18753184  0.05542773  0.78684908  1
  I  I67  1  0.26372538  0.81425173  0.97369317  1
  I  I68  1  0.21315092  0.68753184  0.44457227  1
  I  I69  1  0.81246816  0.55542773  0.71315092  1
  I  I70  1  0.31425173  0.52630683  0.73627462  1
  I  I71  1  0.97369317  0.26372538  0.81425173  1
