# generated using pymatgen
data_Lu2(CN2)3
_symmetry_space_group_name_H-M   'P 1'
_cell_length_a   10.50968810
_cell_length_b   10.50968790
_cell_length_c   10.50968736
_cell_angle_alpha   34.79441064
_cell_angle_beta   34.79441225
_cell_angle_gamma   34.79441123
_symmetry_Int_Tables_number   1
_chemical_formula_structural   Lu2(CN2)3
_chemical_formula_sum   'Lu4 C6 N12'
_cell_volume   337.38456002
_cell_formula_units_Z   2
loop_
 _symmetry_equiv_pos_site_id
 _symmetry_equiv_pos_as_xyz
  1  'x, y, z'
loop_
 _atom_site_type_symbol
 _atom_site_label
 _atom_site_symmetry_multiplicity
 _atom_site_fract_x
 _atom_site_fract_y
 _atom_site_fract_z
 _atom_site_occupancy
  Lu  Lu0  1  0.66417499  0.66417499  0.66417499  1
  Lu  Lu1  1  0.83582501  0.83582501  0.83582501  1
  Lu  Lu2  1  0.33582501  0.33582501  0.33582501  1
  Lu  Lu3  1  0.16417499  0.16417499  0.16417499  1
  C  C4  1  0.45434624  0.04565376  0.75000000  1
  C  C5  1  0.54565376  0.95434624  0.25000000  1
  C  C6  1  0.95434624  0.25000000  0.54565376  1
  C  C7  1  0.25000000  0.54565376  0.95434624  1
  C  C8  1  0.75000000  0.45434624  0.04565376  1
  C  C9  1  0.04565376  0.75000000  0.45434624  1
  N  N10  1  0.04769327  0.86079351  0.46011920  1
  N  N11  1  0.96011920  0.36079351  0.54769327  1
  N  N12  1  0.46011920  0.04769327  0.86079351  1
  N  N13  1  0.53988080  0.95230673  0.13920649  1
  N  N14  1  0.45230673  0.03988080  0.63920649  1
  N  N15  1  0.63920649  0.45230673  0.03988080  1
  N  N16  1  0.03988080  0.63920649  0.45230673  1
  N  N17  1  0.54769327  0.96011920  0.36079351  1
  N  N18  1  0.95230673  0.13920649  0.53988080  1
  N  N19  1  0.36079351  0.54769327  0.96011920  1
  N  N20  1  0.86079351  0.46011920  0.04769327  1
  N  N21  1  0.13920649  0.53988080  0.95230673  1
