# generated using pymatgen
data_K3SbPCO7
_symmetry_space_group_name_H-M   'P 1'
_cell_length_a   10.32556296
_cell_length_b   7.14307052
_cell_length_c   6.03502545
_cell_angle_alpha   90.00000000
_cell_angle_beta   84.47996161
_cell_angle_gamma   90.00000000
_symmetry_Int_Tables_number   1
_chemical_formula_structural   K3SbPCO7
_chemical_formula_sum   'K6 Sb2 P2 C2 O14'
_cell_volume   443.05649597
_cell_formula_units_Z   2
loop_
 _symmetry_equiv_pos_site_id
 _symmetry_equiv_pos_as_xyz
  1  'x, y, z'
loop_
 _atom_site_type_symbol
 _atom_site_label
 _atom_site_symmetry_multiplicity
 _atom_site_fract_x
 _atom_site_fract_y
 _atom_site_fract_z
 _atom_site_occupancy
  K  K0  1  0.07826759  0.25000000  0.75987480  1
  K  K1  1  0.26981900  0.99914752  0.22063183  1
  K  K2  1  0.26981900  0.50085248  0.22063183  1
  K  K3  1  0.73018100  0.49914752  0.77936817  1
  K  K4  1  0.73018100  0.00085248  0.77936817  1
  K  K5  1  0.92173241  0.75000000  0.24012520  1
  Sb  Sb6  1  0.35320062  0.75000000  0.71980674  1
  Sb  Sb7  1  0.64679938  0.25000000  0.28019326  1
  P  P8  1  0.40740520  0.25000000  0.67231321  1
  P  P9  1  0.59259480  0.75000000  0.32768679  1
  C  C10  1  0.05576969  0.75000000  0.72369405  1
  C  C11  1  0.94423031  0.25000000  0.27630595  1
  O  O12  1  0.06906206  0.25000000  0.22743416  1
  O  O13  1  0.13236532  0.75000000  0.88889925  1
  O  O14  1  0.10762013  0.75000000  0.51977224  1
  O  O15  1  0.32012033  0.07516247  0.74383482  1
  O  O16  1  0.32012033  0.42483753  0.74383482  1
  O  O17  1  0.43006654  0.25000000  0.40842276  1
  O  O18  1  0.46339814  0.75000000  0.22595273  1
  O  O19  1  0.53660086  0.25000000  0.77404727  1
  O  O20  1  0.56993346  0.75000000  0.59157724  1
  O  O21  1  0.67987967  0.57516247  0.25616518  1
  O  O22  1  0.67987967  0.92483753  0.25616518  1
  O  O23  1  0.89237987  0.25000000  0.48022776  1
  O  O24  1  0.86763468  0.25000000  0.11110075  1
  O  O25  1  0.93093794  0.75000000  0.77256584  1
