# generated using pymatgen
data_EuSnPt
_symmetry_space_group_name_H-M   'P 1'
_cell_length_a   4.71956794
_cell_length_b   7.58864672
_cell_length_c   8.03509115
_cell_angle_alpha   89.99922043
_cell_angle_beta   90.00126665
_cell_angle_gamma   90.00050383
_symmetry_Int_Tables_number   1
_chemical_formula_structural   EuSnPt
_chemical_formula_sum   'Eu4 Sn4 Pt4'
_cell_volume   287.77786432
_cell_formula_units_Z   4
loop_
 _symmetry_equiv_pos_site_id
 _symmetry_equiv_pos_as_xyz
  1  'x, y, z'
loop_
 _atom_site_type_symbol
 _atom_site_label
 _atom_site_symmetry_multiplicity
 _atom_site_fract_x
 _atom_site_fract_y
 _atom_site_fract_z
 _atom_site_occupancy
  Eu  Eu0  1  0.75000394  0.98057887  0.31677217  1
  Eu  Eu1  1  0.24999973  0.51941604  0.81676825  1
  Eu  Eu2  1  0.24999704  0.01942053  0.68322814  1
  Eu  Eu3  1  0.74999805  0.48058101  0.18323139  1
  Sn  Sn4  1  0.74999803  0.83555406  0.92472019  1
  Sn  Sn5  1  0.25000032  0.16444496  0.07528019  1
  Sn  Sn6  1  0.25000003  0.66444706  0.42472134  1
  Sn  Sn7  1  0.75000346  0.33555518  0.57527794  1
  Pt  Pt8  1  0.74999683  0.20520472  0.89530224  1
  Pt  Pt9  1  0.25000235  0.79479671  0.10470027  1
  Pt  Pt10  1  0.24999589  0.29479450  0.39529896  1
  Pt  Pt11  1  0.75000434  0.70520636  0.60469892  1
