# generated using pymatgen
data_La21Fe8Sn7C12
_symmetry_space_group_name_H-M   'P 1'
_cell_length_a   11.64356302
_cell_length_b   11.64356305
_cell_length_c   11.64356257
_cell_angle_alpha   59.99999854
_cell_angle_beta   59.99999847
_cell_angle_gamma   59.99999905
_symmetry_Int_Tables_number   1
_chemical_formula_structural   La21Fe8Sn7C12
_chemical_formula_sum   'La21 Fe8 Sn7 C12'
_cell_volume   1116.20166940
_cell_formula_units_Z   1
loop_
 _symmetry_equiv_pos_site_id
 _symmetry_equiv_pos_as_xyz
  1  'x, y, z'
loop_
 _atom_site_type_symbol
 _atom_site_label
 _atom_site_symmetry_multiplicity
 _atom_site_fract_x
 _atom_site_fract_y
 _atom_site_fract_z
 _atom_site_occupancy
  La  La0  1  0.90577457  0.36474181  0.36474181  1
  La  La1  1  0.63525819  0.09422543  0.63525819  1
  La  La2  1  0.36474181  0.90577457  0.36474181  1
  La  La3  1  1.00000000  1.00000000  0.33982512  1
  La  La4  1  1.00000000  0.33982512  0.00000000  1
  La  La5  1  0.66017488  0.33982512  0.00000000  1
  La  La6  1  0.33982512  0.00000000  0.66017488  1
  La  La7  1  0.63525819  0.63525819  0.63525819  1
  La  La8  1  0.36474181  0.36474181  0.90577457  1
  La  La9  1  0.33982512  1.00000000  0.00000000  1
  La  La10  1  0.66017488  1.00000000  0.33982512  1
  La  La11  1  0.66017488  0.00000000  1.00000000  1
  La  La12  1  1.00000000  0.66017488  0.33982512  1
  La  La13  1  0.36474181  0.36474181  0.36474181  1
  La  La14  1  0.00000000  0.33982512  0.66017488  1
  La  La15  1  0.33982512  0.66017488  1.00000000  1
  La  La16  1  0.50000000  0.50000000  0.50000000  1
  La  La17  1  0.00000000  0.00000000  0.66017488  1
  La  La18  1  0.09422543  0.63525819  0.63525819  1
  La  La19  1  0.00000000  0.66017488  1.00000000  1
  La  La20  1  0.63525819  0.63525819  0.09422543  1
  Fe  Fe21  1  0.58848450  0.80383850  0.80383850  1
  Fe  Fe22  1  0.41151550  0.19616150  0.19616150  1
  Fe  Fe23  1  0.19616150  0.41151550  0.19616150  1
  Fe  Fe24  1  0.19616150  0.19616150  0.19616150  1
  Fe  Fe25  1  0.80383850  0.80383850  0.58848450  1
  Fe  Fe26  1  0.80383850  0.80383850  0.80383850  1
  Fe  Fe27  1  0.80383850  0.58848450  0.80383850  1
  Fe  Fe28  1  0.19616150  0.19616150  0.41151550  1
  Sn  Sn29  1  0.71066319  0.28933681  0.71066319  1
  Sn  Sn30  1  0.71066319  0.71066319  0.28933681  1
  Sn  Sn31  1  0.28933681  0.71066319  0.28933681  1
  Sn  Sn32  1  0.28933681  0.28933681  0.71066319  1
  Sn  Sn33  1  0.00000000  0.00000000  0.00000000  1
  Sn  Sn34  1  0.71066319  0.28933681  0.28933681  1
  Sn  Sn35  1  0.28933681  0.71066319  0.71066319  1
  C  C36  1  0.11010403  0.11010403  0.38989597  1
  C  C37  1  0.61010403  0.61010403  0.88989597  1
  C  C38  1  0.38989597  0.11010403  0.38989597  1
  C  C39  1  0.88989597  0.61010403  0.61010403  1
  C  C40  1  0.11010403  0.38989597  0.38989597  1
  C  C41  1  0.61010403  0.88989597  0.61010403  1
  C  C42  1  0.88989597  0.61010403  0.88989597  1
  C  C43  1  0.38989597  0.11010403  0.11010403  1
  C  C44  1  0.11010403  0.38989597  0.11010403  1
  C  C45  1  0.38989597  0.38989597  0.11010403  1
  C  C46  1  0.61010403  0.88989597  0.88989597  1
  C  C47  1  0.88989597  0.88989597  0.61010403  1
