# generated using pymatgen
data_La(ReSi)2
_symmetry_space_group_name_H-M   'P 1'
_cell_length_a   4.16382500
_cell_length_b   4.25546269
_cell_length_c   10.99129518
_cell_angle_alpha   101.16198045
_cell_angle_beta   100.91862403
_cell_angle_gamma   89.99999681
_symmetry_Int_Tables_number   1
_chemical_formula_structural   La(ReSi)2
_chemical_formula_sum   'La2 Re4 Si4'
_cell_volume   187.47589052
_cell_formula_units_Z   2
loop_
 _symmetry_equiv_pos_site_id
 _symmetry_equiv_pos_as_xyz
  1  'x, y, z'
loop_
 _atom_site_type_symbol
 _atom_site_label
 _atom_site_symmetry_multiplicity
 _atom_site_fract_x
 _atom_site_fract_y
 _atom_site_fract_z
 _atom_site_occupancy
  La  La0  1  0.66331230  0.91331230  0.82662460  1
  La  La1  1  0.33668770  0.08668770  0.17337540  1
  Re  Re2  1  0.96130346  0.21130346  0.42260692  1
  Re  Re3  1  0.53554540  0.28554540  0.57109080  1
  Re  Re4  1  0.03869654  0.78869654  0.57739308  1
  Re  Re5  1  0.46445460  0.71445460  0.42890920  1
  Si  Si6  1  0.77845930  0.52845930  0.05691860  1
  Si  Si7  1  0.22154070  0.47154070  0.94308140  1
  Si  Si8  1  0.10375744  0.35375744  0.70751488  1
  Si  Si9  1  0.89624256  0.64624256  0.29248512  1
