# generated using pymatgen
data_Sc2CrC3
_symmetry_space_group_name_H-M   'P 1'
_cell_length_a   3.27812021
_cell_length_b   5.79681993
_cell_length_c   14.10991088
_cell_angle_alpha   90.00000000
_cell_angle_beta   90.00000000
_cell_angle_gamma   90.00000000
_symmetry_Int_Tables_number   1
_chemical_formula_structural   Sc2CrC3
_chemical_formula_sum   'Sc8 Cr4 C12'
_cell_volume   268.12601639
_cell_formula_units_Z   4
loop_
 _symmetry_equiv_pos_site_id
 _symmetry_equiv_pos_as_xyz
  1  'x, y, z'
loop_
 _atom_site_type_symbol
 _atom_site_label
 _atom_site_symmetry_multiplicity
 _atom_site_fract_x
 _atom_site_fract_y
 _atom_site_fract_z
 _atom_site_occupancy
  Sc  Sc0  1  0.00000000  0.37929979  0.81220084  1
  Sc  Sc1  1  0.00000000  0.62070021  0.18779916  1
  Sc  Sc2  1  0.00000000  0.87929979  0.68779916  1
  Sc  Sc3  1  0.00000000  0.12070021  0.31220084  1
  Sc  Sc4  1  0.50000000  0.50000000  0.00000000  1
  Sc  Sc5  1  0.00000000  0.00000000  0.00000000  1
  Sc  Sc6  1  0.50000000  0.00000000  0.50000000  1
  Sc  Sc7  1  0.00000000  0.50000000  0.50000000  1
  Cr  Cr8  1  0.50000000  0.80010205  0.84663731  1
  Cr  Cr9  1  0.50000000  0.19989795  0.15336269  1
  Cr  Cr10  1  0.50000000  0.30010205  0.65336269  1
  Cr  Cr11  1  0.50000000  0.69989795  0.34663731  1
  C  C12  1  0.00000000  0.31780094  0.09226284  1
  C  C13  1  0.00000000  0.18219906  0.59226284  1
  C  C14  1  0.00000000  0.68219906  0.90773716  1
  C  C15  1  0.50000000  0.60817810  0.72113418  1
  C  C16  1  0.00000000  0.81780094  0.40773716  1
  C  C17  1  0.50000000  0.10817810  0.77886582  1
  C  C18  1  0.50000000  0.36088811  0.38237042  1
  C  C19  1  0.50000000  0.13911189  0.88237042  1
  C  C20  1  0.50000000  0.86088811  0.11762958  1
  C  C21  1  0.50000000  0.89182190  0.22113418  1
  C  C22  1  0.50000000  0.39182190  0.27886582  1
  C  C23  1  0.50000000  0.63911189  0.61762958  1
