# generated using pymatgen
data_Ba2PrIrO6
_symmetry_space_group_name_H-M   'P 1'
_cell_length_a   6.10186763
_cell_length_b   6.10186763
_cell_length_c   6.10186763
_cell_angle_alpha   59.99999997
_cell_angle_beta   59.99999997
_cell_angle_gamma   59.99999998
_symmetry_Int_Tables_number   1
_chemical_formula_structural   Ba2PrIrO6
_chemical_formula_sum   'Ba2 Pr1 Ir1 O6'
_cell_volume   160.64726971
_cell_formula_units_Z   1
loop_
 _symmetry_equiv_pos_site_id
 _symmetry_equiv_pos_as_xyz
  1  'x, y, z'
loop_
 _atom_site_type_symbol
 _atom_site_label
 _atom_site_symmetry_multiplicity
 _atom_site_fract_x
 _atom_site_fract_y
 _atom_site_fract_z
 _atom_site_occupancy
  O  O0  1  0.26998256  0.73001744  0.73001744  1
  O  O1  1  0.26998256  0.73001744  0.26998256  1
  O  O2  1  0.73001744  0.26998256  0.73001744  1
  O  O3  1  0.26998256  0.26998256  0.73001744  1
  O  O4  1  0.73001744  0.26998256  0.26998256  1
  O  O5  1  0.73001744  0.73001744  0.26998256  1
  Ba  Ba6  1  0.25000000  0.25000000  0.25000000  1
  Ba  Ba7  1  0.75000000  0.75000000  0.75000000  1
  Pr  Pr8  1  0.00000000  0.00000000  0.00000000  1
  Ir  Ir9  1  0.50000000  0.50000000  0.50000000  1
