# generated using pymatgen
data_La3AgGeS7
_symmetry_space_group_name_H-M   'P 1'
_cell_length_a   10.52249260
_cell_length_b   10.52249279
_cell_length_c   5.89843527
_cell_angle_alpha   90.00000000
_cell_angle_beta   90.00000000
_cell_angle_gamma   119.99999938
_symmetry_Int_Tables_number   1
_chemical_formula_structural   La3AgGeS7
_chemical_formula_sum   'La6 Ag2 Ge2 S14'
_cell_volume   565.59390154
_cell_formula_units_Z   2
loop_
 _symmetry_equiv_pos_site_id
 _symmetry_equiv_pos_as_xyz
  1  'x, y, z'
loop_
 _atom_site_type_symbol
 _atom_site_label
 _atom_site_symmetry_multiplicity
 _atom_site_fract_x
 _atom_site_fract_y
 _atom_site_fract_z
 _atom_site_occupancy
  La  La0  1  0.87557470  0.64096149  0.95666635  1
  La  La1  1  0.23461321  0.87557470  0.45666635  1
  La  La2  1  0.64096149  0.76538679  0.45666635  1
  La  La3  1  0.76538679  0.12442530  0.95666635  1
  La  La4  1  0.35903851  0.23461321  0.95666635  1
  La  La5  1  0.12442530  0.35903851  0.45666635  1
  Ag  Ag6  1  0.00000000  0.00000000  0.39861908  1
  Ag  Ag7  1  0.00000000  0.00000000  0.89861908  1
  Ge  Ge8  1  0.66666700  0.33333300  0.54077236  1
  Ge  Ge9  1  0.33333300  0.66666700  0.04077236  1
  S  S10  1  0.33333300  0.66666700  0.66611694  1
  S  S11  1  0.66666700  0.33333300  0.16611694  1
  S  S12  1  0.26554054  0.17435548  0.44271306  1
  S  S13  1  0.52191751  0.10936907  0.69128446  1
  S  S14  1  0.58745156  0.47808249  0.69128446  1
  S  S15  1  0.47808249  0.89063093  0.19128446  1
  S  S16  1  0.73445946  0.82564452  0.94271306  1
  S  S17  1  0.09118506  0.26554054  0.94271306  1
  S  S18  1  0.89063093  0.41254844  0.69128446  1
  S  S19  1  0.17435548  0.90881494  0.94271306  1
  S  S20  1  0.41254844  0.52191751  0.19128446  1
  S  S21  1  0.90881494  0.73445946  0.44271306  1
  S  S22  1  0.82564452  0.09118506  0.44271306  1
  S  S23  1  0.10936907  0.58745156  0.19128446  1
