# generated using pymatgen
data_Ba2LaTa(CuO4)2
_symmetry_space_group_name_H-M   'P 1'
_cell_length_a   3.99960062
_cell_length_b   3.99960128
_cell_length_c   12.23232635
_cell_angle_alpha   89.99977624
_cell_angle_beta   90.00051595
_cell_angle_gamma   89.99975862
_symmetry_Int_Tables_number   1
_chemical_formula_structural   Ba2LaTa(CuO4)2
_chemical_formula_sum   'Ba2 La1 Ta1 Cu2 O8'
_cell_volume   195.67817306
_cell_formula_units_Z   1
loop_
 _symmetry_equiv_pos_site_id
 _symmetry_equiv_pos_as_xyz
  1  'x, y, z'
loop_
 _atom_site_type_symbol
 _atom_site_label
 _atom_site_symmetry_multiplicity
 _atom_site_fract_x
 _atom_site_fract_y
 _atom_site_fract_z
 _atom_site_occupancy
  Ba  Ba0  1  0.49999738  0.49999956  0.19480832  1
  Ba  Ba1  1  0.50000621  0.49999891  0.80518479  1
  La  La2  1  0.49999903  0.50000004  0.49999246  1
  Ta  Ta3  1  -0.00000070  0.00000135  0.00000378  1
  Cu  Cu4  1  0.00000153  0.00000287  0.64063686  1
  Cu  Cu5  1  0.99999793  -0.00000055  0.35942870  1
  O  O6  1  0.00000426  0.00000028  0.16208463  1
  O  O7  1  0.49999943  0.00000118  0.62802311  1
  O  O8  1  0.99999591  0.50000069  0.62802374  1
  O  O9  1  0.99999817  0.49999962  0.37194151  1
  O  O10  1  0.49999718  0.99999892  0.37194366  1
  O  O11  1  0.50000081  0.99999524  0.00000203  1
  O  O12  1  0.00000133  0.00000430  0.83792350  1
  O  O13  1  0.00000154  0.49999759  0.00000291  1
