# generated using pymatgen
data_Na2AlNiF7
_symmetry_space_group_name_H-M   'P 1'
_cell_length_a   7.13709782
_cell_length_b   7.23567285
_cell_length_c   7.23567322
_cell_angle_alpha   61.75778208
_cell_angle_beta   60.44965118
_cell_angle_gamma   60.44964961
_symmetry_Int_Tables_number   1
_chemical_formula_structural   Na2AlNiF7
_chemical_formula_sum   'Na4 Al2 Ni2 F14'
_cell_volume   269.40256992
_cell_formula_units_Z   2
loop_
 _symmetry_equiv_pos_site_id
 _symmetry_equiv_pos_as_xyz
  1  'x, y, z'
loop_
 _atom_site_type_symbol
 _atom_site_label
 _atom_site_symmetry_multiplicity
 _atom_site_fract_x
 _atom_site_fract_y
 _atom_site_fract_z
 _atom_site_occupancy
  Na  Na0  1  0.50000000  0.50000000  0.00000000  1
  Na  Na1  1  0.00000000  0.50000000  0.00000000  1
  Na  Na2  1  0.50000000  0.50000000  0.50000000  1
  Na  Na3  1  0.00000000  0.00000000  0.00000000  1
  Al  Al4  1  0.50000000  0.00000000  0.00000000  1
  Al  Al5  1  0.00000000  0.50000000  0.50000000  1
  Ni  Ni6  1  0.00000000  0.00000000  0.50000000  1
  Ni  Ni7  1  0.50000000  0.00000000  0.50000000  1
  F  F8  1  0.20093748  0.04704494  0.17777200  1
  F  F9  1  0.70093748  0.67777200  0.54704494  1
  F  F10  1  0.75000000  0.12159502  0.37840498  1
  F  F11  1  0.08412668  0.63708707  0.19465957  1
  F  F12  1  0.57424558  0.04704494  0.17777200  1
  F  F13  1  0.58412668  0.69465957  0.13708707  1
  F  F14  1  0.25000000  0.87840498  0.62159502  1
  F  F15  1  0.91587332  0.36291293  0.80534043  1
  F  F16  1  0.41587332  0.30534043  0.86291293  1
  F  F17  1  0.42575442  0.95295506  0.82222800  1
  F  F18  1  0.07424558  0.67777200  0.54704494  1
  F  F19  1  0.79906252  0.95295506  0.82222800  1
  F  F20  1  0.29906252  0.32222800  0.45295506  1
  F  F21  1  0.92575442  0.32222800  0.45295506  1
