# generated using pymatgen
data_Ba2InRuO6
_symmetry_space_group_name_H-M   'P 1'
_cell_length_a   5.94078403
_cell_length_b   5.94078401
_cell_length_c   14.75935529
_cell_angle_alpha   90.00000000
_cell_angle_beta   90.00000000
_cell_angle_gamma   120.00000005
_symmetry_Int_Tables_number   1
_chemical_formula_structural   Ba2InRuO6
_chemical_formula_sum   'Ba6 In3 Ru3 O18'
_cell_volume   451.11321154
_cell_formula_units_Z   3
loop_
 _symmetry_equiv_pos_site_id
 _symmetry_equiv_pos_as_xyz
  1  'x, y, z'
loop_
 _atom_site_type_symbol
 _atom_site_label
 _atom_site_symmetry_multiplicity
 _atom_site_fract_x
 _atom_site_fract_y
 _atom_site_fract_z
 _atom_site_occupancy
  Ba  Ba0  1  0.66666700  0.33333300  0.90458937  1
  Ba  Ba1  1  0.00000000  0.00000000  0.24913823  1
  Ba  Ba2  1  0.00000000  0.00000000  0.75086177  1
  Ba  Ba3  1  0.66666700  0.33333300  0.59228713  1
  Ba  Ba4  1  0.33333300  0.66666700  0.40771287  1
  Ba  Ba5  1  0.33333300  0.66666700  0.09541063  1
  In  In6  1  0.66666700  0.33333300  0.34677870  1
  In  In7  1  0.00000000  0.00000000  0.00000000  1
  In  In8  1  0.33333300  0.66666700  0.65322130  1
  Ru  Ru9  1  0.33333300  0.66666700  0.84377826  1
  Ru  Ru10  1  0.66666700  0.33333300  0.15622174  1
  Ru  Ru11  1  0.00000000  0.00000000  0.50000000  1
  O  O12  1  0.84282859  0.15717141  0.42264670  1
  O  O13  1  0.17230039  0.34460078  0.91535012  1
  O  O14  1  0.84282859  0.68565717  0.42264670  1
  O  O15  1  0.31434283  0.15717141  0.42264670  1
  O  O16  1  0.15717141  0.84282859  0.57735330  1
  O  O17  1  0.82769961  0.65539922  0.08464988  1
  O  O18  1  0.34460078  0.17230039  0.08464988  1
  O  O19  1  0.17230039  0.82769961  0.91535012  1
  O  O20  1  0.51287243  0.02574486  0.24265575  1
  O  O21  1  0.48712757  0.97425514  0.75734425  1
  O  O22  1  0.65539922  0.82769961  0.91535012  1
  O  O23  1  0.15717141  0.31434283  0.57735330  1
  O  O24  1  0.48712757  0.51287243  0.75734425  1
  O  O25  1  0.02574486  0.51287243  0.75734425  1
  O  O26  1  0.68565717  0.84282859  0.57735330  1
  O  O27  1  0.97425514  0.48712757  0.24265575  1
  O  O28  1  0.82769961  0.17230039  0.08464988  1
  O  O29  1  0.51287243  0.48712757  0.24265575  1
