# generated using pymatgen
data_RbPbIO6
_symmetry_space_group_name_H-M   'P 1'
_cell_length_a   5.55962623
_cell_length_b   5.55962635
_cell_length_c   12.43273899
_cell_angle_alpha   90.00000000
_cell_angle_beta   90.00000000
_cell_angle_gamma   119.99999933
_symmetry_Int_Tables_number   1
_chemical_formula_structural   RbPbIO6
_chemical_formula_sum   'Rb2 Pb2 I2 O12'
_cell_volume   332.80408699
_cell_formula_units_Z   2
loop_
 _symmetry_equiv_pos_site_id
 _symmetry_equiv_pos_as_xyz
  1  'x, y, z'
loop_
 _atom_site_type_symbol
 _atom_site_label
 _atom_site_symmetry_multiplicity
 _atom_site_fract_x
 _atom_site_fract_y
 _atom_site_fract_z
 _atom_site_occupancy
  Rb  Rb0  1  0.00000000  0.00000000  0.00000000  1
  Rb  Rb1  1  0.00000000  0.00000000  0.50000000  1
  Pb  Pb2  1  0.66666700  0.33333300  0.25000000  1
  Pb  Pb3  1  0.33333300  0.66666700  0.75000000  1
  I  I4  1  0.33333300  0.66666700  0.25000000  1
  I  I5  1  0.66666700  0.33333300  0.75000000  1
  O  O6  1  0.63669975  0.59706999  0.65889128  1
  O  O7  1  0.63669975  0.03962976  0.84110872  1
  O  O8  1  0.96037024  0.59706999  0.84110872  1
  O  O9  1  0.40293001  0.36330025  0.84110872  1
  O  O10  1  0.03962976  0.40293001  0.34110872  1
  O  O11  1  0.40293001  0.03962976  0.65889128  1
  O  O12  1  0.36330025  0.96037024  0.34110872  1
  O  O13  1  0.36330025  0.40293001  0.15889128  1
  O  O14  1  0.96037024  0.36330025  0.65889128  1
  O  O15  1  0.59706999  0.96037024  0.15889128  1
  O  O16  1  0.03962976  0.63669975  0.15889128  1
  O  O17  1  0.59706999  0.63669975  0.34110872  1
