# generated using pymatgen
data_La3BWO9
_symmetry_space_group_name_H-M   'P 1'
_cell_length_a   8.92575974
_cell_length_b   8.92575947
_cell_length_c   5.68089143
_cell_angle_alpha   90.00000000
_cell_angle_beta   90.00000000
_cell_angle_gamma   120.00000097
_symmetry_Int_Tables_number   1
_chemical_formula_structural   La3BWO9
_chemical_formula_sum   'La6 B2 W2 O18'
_cell_volume   391.95615506
_cell_formula_units_Z   2
loop_
 _symmetry_equiv_pos_site_id
 _symmetry_equiv_pos_as_xyz
  1  'x, y, z'
loop_
 _atom_site_type_symbol
 _atom_site_label
 _atom_site_symmetry_multiplicity
 _atom_site_fract_x
 _atom_site_fract_y
 _atom_site_fract_z
 _atom_site_occupancy
  La  La0  1  0.91764053  0.27679165  0.21699446  1
  La  La1  1  0.72320835  0.64084888  0.21699446  1
  La  La2  1  0.27679165  0.35915112  0.71699446  1
  La  La3  1  0.08235947  0.72320835  0.71699446  1
  La  La4  1  0.35915112  0.08235947  0.21699446  1
  La  La5  1  0.64084888  0.91764053  0.71699446  1
  B  B6  1  0.00000000  0.00000000  0.88303671  1
  B  B7  1  0.00000000  0.00000000  0.38303671  1
  W  W8  1  0.66666700  0.33333300  0.75416403  1
  W  W9  1  0.33333300  0.66666700  0.25416403  1
  O  O10  1  0.38353921  0.86091208  0.47313362  1
  O  O11  1  0.47737287  0.61646079  0.47313362  1
  O  O12  1  0.12507905  0.17378445  0.37613889  1
  O  O13  1  0.52855771  0.72881503  0.04919945  1
  O  O14  1  0.17378445  0.04870540  0.87613889  1
  O  O15  1  0.87492095  0.82621555  0.87613889  1
  O  O16  1  0.27118497  0.79974268  0.04919945  1
  O  O17  1  0.20025732  0.47144229  0.04919945  1
  O  O18  1  0.86091208  0.47737287  0.97313362  1
  O  O19  1  0.95129460  0.12507905  0.87613889  1
  O  O20  1  0.72881503  0.20025732  0.54919945  1
  O  O21  1  0.04870540  0.87492095  0.37613889  1
  O  O22  1  0.61646079  0.13908792  0.97313362  1
  O  O23  1  0.82621555  0.95129460  0.37613889  1
  O  O24  1  0.79974268  0.52855771  0.54919945  1
  O  O25  1  0.47144229  0.27118497  0.54919945  1
  O  O26  1  0.52262713  0.38353921  0.97313362  1
  O  O27  1  0.13908792  0.52262713  0.47313362  1
