# generated using pymatgen
data_NiF3
_symmetry_space_group_name_H-M   'P 1'
_cell_length_a   5.20897801
_cell_length_b   5.20897801
_cell_length_c   5.20897801
_cell_angle_alpha   55.96579359
_cell_angle_beta   55.96579358
_cell_angle_gamma   55.96579355
_symmetry_Int_Tables_number   1
_chemical_formula_structural   NiF3
_chemical_formula_sum   'Ni2 F6'
_cell_volume   90.59876847
_cell_formula_units_Z   2
loop_
 _symmetry_equiv_pos_site_id
 _symmetry_equiv_pos_as_xyz
  1  'x, y, z'
loop_
 _atom_site_type_symbol
 _atom_site_label
 _atom_site_symmetry_multiplicity
 _atom_site_fract_x
 _atom_site_fract_y
 _atom_site_fract_z
 _atom_site_occupancy
  F  F0  1  0.62759294  0.23146365  0.90248313  1
  F  F1  1  0.90248313  0.62759294  0.23146365  1
  F  F2  1  0.23146365  0.90248313  0.62759294  1
  F  F3  1  0.37240706  0.76853635  0.09751687  1
  F  F4  1  0.09751687  0.37240706  0.76853635  1
  F  F5  1  0.76853635  0.09751687  0.37240706  1
  Ni  Ni6  1  0.00000000  0.00000000  0.00000000  1
  Ni  Ni7  1  0.50000000  0.50000000  0.50000000  1
