# generated using pymatgen
data_U2Te3
_symmetry_space_group_name_H-M   'P 1'
_cell_length_a   4.30362602
_cell_length_b   11.65704009
_cell_length_c   12.01296824
_cell_angle_alpha   90.00000000
_cell_angle_beta   90.00000000
_cell_angle_gamma   90.00000000
_symmetry_Int_Tables_number   1
_chemical_formula_structural   U2Te3
_chemical_formula_sum   'U8 Te12'
_cell_volume   602.66107728
_cell_formula_units_Z   4
loop_
 _symmetry_equiv_pos_site_id
 _symmetry_equiv_pos_as_xyz
  1  'x, y, z'
loop_
 _atom_site_type_symbol
 _atom_site_label
 _atom_site_symmetry_multiplicity
 _atom_site_fract_x
 _atom_site_fract_y
 _atom_site_fract_z
 _atom_site_occupancy
  U  U0  1  0.25000000  0.18515116  0.48956745  1
  U  U1  1  0.25000000  0.31484884  0.98956745  1
  U  U2  1  0.75000000  0.81484884  0.51043255  1
  U  U3  1  0.75000000  0.68515116  0.01043255  1
  U  U4  1  0.75000000  0.49905523  0.69494868  1
  U  U5  1  0.75000000  0.00094477  0.19494868  1
  U  U6  1  0.25000000  0.50094477  0.30505132  1
  U  U7  1  0.25000000  -0.00094477  0.80505132  1
  Te  Te8  1  0.25000000  0.62644402  0.54693332  1
  Te  Te9  1  0.25000000  0.87355598  0.04693332  1
  Te  Te10  1  0.75000000  0.37355598  0.45306668  1
  Te  Te11  1  0.75000000  0.12644402  0.95306668  1
  Te  Te12  1  0.75000000  0.05577290  0.62354243  1
  Te  Te13  1  0.75000000  0.44422710  0.12354243  1
  Te  Te14  1  0.25000000  0.94422710  0.37645757  1
  Te  Te15  1  0.25000000  0.55577290  0.87645757  1
  Te  Te16  1  0.25000000  0.29684402  0.72905857  1
  Te  Te17  1  0.25000000  0.20315598  0.22905857  1
  Te  Te18  1  0.75000000  0.70315598  0.27094143  1
  Te  Te19  1  0.75000000  0.79684402  0.77094143  1
