# generated using pymatgen
data_Cs4CdNi3F12
_symmetry_space_group_name_H-M   'P 1'
_cell_length_a   10.78215637
_cell_length_b   10.78215641
_cell_length_c   10.78215642
_cell_angle_alpha   33.97782233
_cell_angle_beta   33.97782202
_cell_angle_gamma   33.97781955
_symmetry_Int_Tables_number   1
_chemical_formula_structural   Cs4CdNi3F12
_chemical_formula_sum   'Cs4 Cd1 Ni3 F12'
_cell_volume   348.96870276
_cell_formula_units_Z   1
loop_
 _symmetry_equiv_pos_site_id
 _symmetry_equiv_pos_as_xyz
  1  'x, y, z'
loop_
 _atom_site_type_symbol
 _atom_site_label
 _atom_site_symmetry_multiplicity
 _atom_site_fract_x
 _atom_site_fract_y
 _atom_site_fract_z
 _atom_site_occupancy
  Cs  Cs0  1  0.71492401  0.71492401  0.71492401  1
  Cs  Cs1  1  0.86981748  0.86981748  0.86981748  1
  Cs  Cs2  1  0.28507599  0.28507599  0.28507599  1
  Cs  Cs3  1  0.13018252  0.13018252  0.13018252  1
  Cd  Cd4  1  0.00000000  0.00000000  0.00000000  1
  Ni  Ni5  1  0.41020718  0.41020718  0.41020718  1
  Ni  Ni6  1  0.58979282  0.58979282  0.58979282  1
  Ni  Ni7  1  0.50000000  0.50000000  0.50000000  1
  F  F8  1  0.59713334  0.17455342  0.59713334  1
  F  F9  1  0.59713334  0.59713334  0.17455342  1
  F  F10  1  0.21629489  0.69271048  0.21629489  1
  F  F11  1  0.78370511  0.30728952  0.78370511  1
  F  F12  1  0.21629489  0.21629489  0.69271048  1
  F  F13  1  0.40286666  0.82544658  0.40286666  1
  F  F14  1  0.78370511  0.78370511  0.30728952  1
  F  F15  1  0.40286666  0.40286666  0.82544658  1
  F  F16  1  0.82544658  0.40286666  0.40286666  1
  F  F17  1  0.69271048  0.21629489  0.21629489  1
  F  F18  1  0.30728952  0.78370511  0.78370511  1
  F  F19  1  0.17455342  0.59713334  0.59713334  1
