# generated using pymatgen
data_Cs3Mo2(O2F)3
_symmetry_space_group_name_H-M   'P 1'
_cell_length_a   6.51839489
_cell_length_b   6.51839461
_cell_length_c   15.78607210
_cell_angle_alpha   90.00000000
_cell_angle_beta   90.00000000
_cell_angle_gamma   120.00000147
_symmetry_Int_Tables_number   1
_chemical_formula_structural   Cs3Mo2(O2F)3
_chemical_formula_sum   'Cs6 Mo4 O12 F6'
_cell_volume   580.87946308
_cell_formula_units_Z   2
loop_
 _symmetry_equiv_pos_site_id
 _symmetry_equiv_pos_as_xyz
  1  'x, y, z'
loop_
 _atom_site_type_symbol
 _atom_site_label
 _atom_site_symmetry_multiplicity
 _atom_site_fract_x
 _atom_site_fract_y
 _atom_site_fract_z
 _atom_site_occupancy
  Cs  Cs0  1  0.66666700  0.33333300  0.94061074  1
  Cs  Cs1  1  0.33333300  0.66666700  0.05938926  1
  Cs  Cs2  1  0.33333300  0.66666700  0.44061074  1
  Cs  Cs3  1  0.66666700  0.33333300  0.25000000  1
  Cs  Cs4  1  0.66666700  0.33333300  0.55938926  1
  Cs  Cs5  1  0.33333300  0.66666700  0.75000000  1
  Mo  Mo6  1  0.00000000  0.00000000  0.85746095  1
  Mo  Mo7  1  0.00000000  0.00000000  0.35746095  1
  Mo  Mo8  1  0.00000000  0.00000000  0.64253905  1
  Mo  Mo9  1  0.00000000  0.00000000  0.14253905  1
  O  O10  1  0.85641475  0.14358525  0.09773521  1
  O  O11  1  0.71282950  0.85641475  0.59773521  1
  O  O12  1  0.14358525  0.28717050  0.90226479  1
  O  O13  1  0.85641475  0.71282950  0.09773521  1
  O  O14  1  0.14358525  0.85641475  0.59773521  1
  O  O15  1  0.28717050  0.14358525  0.09773521  1
  O  O16  1  0.28717050  0.14358525  0.40226479  1
  O  O17  1  0.14358525  0.85641475  0.90226479  1
  O  O18  1  0.85641475  0.71282950  0.40226479  1
  O  O19  1  0.71282950  0.85641475  0.90226479  1
  O  O20  1  0.14358525  0.28717050  0.59773521  1
  O  O21  1  0.85641475  0.14358525  0.40226479  1
  F  F22  1  0.74377963  0.87188981  0.25000000  1
  F  F23  1  0.12811019  0.87188981  0.25000000  1
  F  F24  1  0.12811019  0.25622037  0.25000000  1
  F  F25  1  0.87188981  0.74377963  0.75000000  1
  F  F26  1  0.87188981  0.12811019  0.75000000  1
  F  F27  1  0.25622037  0.12811019  0.75000000  1
