# generated using pymatgen
data_Ti2Se
_symmetry_space_group_name_H-M   'P 1'
_cell_length_a   3.44907094
_cell_length_b   11.74082675
_cell_length_c   14.53339836
_cell_angle_alpha   90.00000000
_cell_angle_beta   90.00000000
_cell_angle_gamma   90.00000000
_symmetry_Int_Tables_number   1
_chemical_formula_structural   Ti2Se
_chemical_formula_sum   'Ti24 Se12'
_cell_volume   588.52915788
_cell_formula_units_Z   12
loop_
 _symmetry_equiv_pos_site_id
 _symmetry_equiv_pos_as_xyz
  1  'x, y, z'
loop_
 _atom_site_type_symbol
 _atom_site_label
 _atom_site_symmetry_multiplicity
 _atom_site_fract_x
 _atom_site_fract_y
 _atom_site_fract_z
 _atom_site_occupancy
  Ti  Ti0  1  0.50000000  0.35419417  0.52035675  1
  Ti  Ti1  1  0.00000000  0.88585480  0.42580616  1
  Ti  Ti2  1  0.50000000  0.91527590  0.57621185  1
  Ti  Ti3  1  0.50000000  0.97064242  0.10789540  1
  Ti  Ti4  1  0.50000000  0.61414520  0.92580616  1
  Ti  Ti5  1  0.50000000  0.64580583  0.47964325  1
  Ti  Ti6  1  0.00000000  0.47064242  0.39210460  1
  Ti  Ti7  1  0.50000000  0.38585480  0.07419384  1
  Ti  Ti8  1  0.00000000  0.18855087  0.79501113  1
  Ti  Ti9  1  0.00000000  0.09055088  0.25991575  1
  Ti  Ti10  1  0.00000000  0.81144913  0.20498887  1
  Ti  Ti11  1  0.50000000  0.08472410  0.42378815  1
  Ti  Ti12  1  0.00000000  0.85419417  0.97964325  1
  Ti  Ti13  1  0.00000000  0.52935758  0.60789540  1
  Ti  Ti14  1  0.50000000  0.02935758  0.89210460  1
  Ti  Ti15  1  0.00000000  0.41527590  0.92378815  1
  Ti  Ti16  1  0.50000000  0.59055088  0.24008425  1
  Ti  Ti17  1  0.00000000  0.58472410  0.07621185  1
  Ti  Ti18  1  0.00000000  0.11414520  0.57419384  1
  Ti  Ti19  1  0.00000000  0.14580583  0.02035675  1
  Ti  Ti20  1  0.50000000  0.31144913  0.29501113  1
  Ti  Ti21  1  0.50000000  0.40944912  0.75991575  1
  Ti  Ti22  1  0.00000000  0.90944912  0.74008425  1
  Ti  Ti23  1  0.50000000  0.68855087  0.70498887  1
  Se  Se24  1  0.00000000  0.31279376  0.65006628  1
  Se  Se25  1  0.50000000  0.18720624  0.15006628  1
  Se  Se26  1  0.00000000  0.56800964  0.79347680  1
  Se  Se27  1  0.50000000  0.93199036  0.29347680  1
  Se  Se28  1  0.50000000  0.74428199  0.08609376  1
  Se  Se29  1  0.00000000  0.68720624  0.34993372  1
  Se  Se30  1  0.00000000  0.43199036  0.20652320  1
  Se  Se31  1  0.00000000  0.24428199  0.41390624  1
  Se  Se32  1  0.50000000  0.06800964  0.70652320  1
  Se  Se33  1  0.50000000  0.81279376  0.84993372  1
  Se  Se34  1  0.00000000  0.75571801  0.58609376  1
  Se  Se35  1  0.50000000  0.25571801  0.91390624  1
