# generated using pymatgen
data_Li3SbO3
_symmetry_space_group_name_H-M   'P 1'
_cell_length_a   7.16338388
_cell_length_b   7.16338388
_cell_length_c   7.16338388
_cell_angle_alpha   90.00000000
_cell_angle_beta   90.00000000
_cell_angle_gamma   90.00000000
_symmetry_Int_Tables_number   1
_chemical_formula_structural   Li3SbO3
_chemical_formula_sum   'Li12 Sb4 O12'
_cell_volume   367.58237191
_cell_formula_units_Z   4
loop_
 _symmetry_equiv_pos_site_id
 _symmetry_equiv_pos_as_xyz
  1  'x, y, z'
loop_
 _atom_site_type_symbol
 _atom_site_label
 _atom_site_symmetry_multiplicity
 _atom_site_fract_x
 _atom_site_fract_y
 _atom_site_fract_z
 _atom_site_occupancy
  Li  Li0  1  0.96892213  0.96892213  0.96892213  1
  Li  Li1  1  0.26093150  0.23906850  0.76093150  1
  Li  Li2  1  0.24052092  0.74052092  0.75947908  1
  Li  Li3  1  0.25947908  0.25947908  0.25947908  1
  Li  Li4  1  0.23906850  0.76093150  0.26093150  1
  Li  Li5  1  0.53107787  0.03107787  0.46892213  1
  Li  Li6  1  0.46892213  0.53107787  0.03107787  1
  Li  Li7  1  0.76093150  0.26093150  0.23906850  1
  Li  Li8  1  0.74052092  0.75947908  0.24052092  1
  Li  Li9  1  0.75947908  0.24052092  0.74052092  1
  Li  Li10  1  0.73906850  0.73906850  0.73906850  1
  Li  Li11  1  0.03107787  0.46892213  0.53107787  1
  Sb  Sb12  1  0.02314739  0.97685261  0.47685261  1
  Sb  Sb13  1  0.47685261  0.02314739  0.97685261  1
  Sb  Sb14  1  0.52314739  0.52314739  0.52314739  1
  Sb  Sb15  1  0.97685261  0.47685261  0.02314739  1
  O  O16  1  0.99435741  0.24101148  0.40131053  1
  O  O17  1  0.09868947  0.00564259  0.74101148  1
  O  O18  1  0.24101148  0.40131053  0.99435741  1
  O  O19  1  0.25898852  0.59868947  0.49435741  1
  O  O20  1  0.40131053  0.99435741  0.24101148  1
  O  O21  1  0.50564259  0.75898852  0.90131053  1
  O  O22  1  0.49435741  0.25898852  0.59868947  1
  O  O23  1  0.59868947  0.49435741  0.25898852  1
  O  O24  1  0.74101148  0.09868947  0.00564259  1
  O  O25  1  0.75898852  0.90131053  0.50564259  1
  O  O26  1  0.90131053  0.50564259  0.75898852  1
  O  O27  1  0.00564259  0.74101148  0.09868947  1
