# generated using pymatgen
data_CsMnF4
_symmetry_space_group_name_H-M   'P 1'
_cell_length_a   6.48581204
_cell_length_b   8.12286977
_cell_length_c   8.12286977
_cell_angle_alpha   90.00000000
_cell_angle_beta   90.00000000
_cell_angle_gamma   90.00000000
_symmetry_Int_Tables_number   1
_chemical_formula_structural   CsMnF4
_chemical_formula_sum   'Cs4 Mn4 F16'
_cell_volume   427.94045048
_cell_formula_units_Z   4
loop_
 _symmetry_equiv_pos_site_id
 _symmetry_equiv_pos_as_xyz
  1  'x, y, z'
loop_
 _atom_site_type_symbol
 _atom_site_label
 _atom_site_symmetry_multiplicity
 _atom_site_fract_x
 _atom_site_fract_y
 _atom_site_fract_z
 _atom_site_occupancy
  Cs  Cs0  1  0.55200903  0.75000000  0.75000000  1
  Cs  Cs1  1  0.50000000  0.25000000  0.75000000  1
  Cs  Cs2  1  0.44799097  0.25000000  0.25000000  1
  Cs  Cs3  1  0.50000000  0.75000000  0.25000000  1
  Mn  Mn4  1  0.00000000  0.00000000  0.00000000  1
  Mn  Mn5  1  0.00000000  0.50000000  0.50000000  1
  Mn  Mn6  1  0.00000000  0.00000000  0.50000000  1
  Mn  Mn7  1  0.00000000  0.50000000  0.00000000  1
  F  F8  1  0.95183191  0.49751092  0.76726097  1
  F  F9  1  0.28349456  0.52505157  0.96828942  1
  F  F10  1  0.04816809  0.99751092  0.26726097  1
  F  F11  1  0.71650544  0.03171058  0.02505157  1
  F  F12  1  0.95183191  0.76726097  0.00248908  1
  F  F13  1  0.28349456  0.97494843  0.53171058  1
  F  F14  1  0.28349456  0.96828942  0.97494843  1
  F  F15  1  0.04816809  0.50248908  0.23273903  1
  F  F16  1  0.95183191  0.00248908  0.73273903  1
  F  F17  1  0.95183191  0.73273903  0.49751092  1
  F  F18  1  0.71650544  0.47494843  0.03171058  1
  F  F19  1  0.71650544  0.46828942  0.47494843  1
  F  F20  1  0.28349456  0.53171058  0.52505157  1
  F  F21  1  0.04816809  0.23273903  0.99751092  1
  F  F22  1  0.04816809  0.26726097  0.50248908  1
  F  F23  1  0.71650544  0.02505157  0.46828942  1
