# generated using pymatgen
data_ZrCo3B2
_symmetry_space_group_name_H-M   'P 1'
_cell_length_a   5.73761511
_cell_length_b   5.73761511
_cell_length_c   5.73761514
_cell_angle_alpha   94.81232923
_cell_angle_beta   94.81232923
_cell_angle_gamma   94.81232849
_symmetry_Int_Tables_number   1
_chemical_formula_structural   ZrCo3B2
_chemical_formula_sum   'Zr3 Co9 B6'
_cell_volume   186.76618413
_cell_formula_units_Z   3
loop_
 _symmetry_equiv_pos_site_id
 _symmetry_equiv_pos_as_xyz
  1  'x, y, z'
loop_
 _atom_site_type_symbol
 _atom_site_label
 _atom_site_symmetry_multiplicity
 _atom_site_fract_x
 _atom_site_fract_y
 _atom_site_fract_z
 _atom_site_occupancy
  Zr  Zr0  1  0.00000000  -0.00000000  0.00000000  1
  Zr  Zr1  1  0.66968846  0.66968846  0.66968846  1
  Zr  Zr2  1  0.33031154  0.33031154  0.33031154  1
  Co  Co3  1  0.00000000  -0.00000000  0.50000000  1
  Co  Co4  1  0.00000000  0.50000000  0.00000000  1
  Co  Co5  1  0.50000000  -0.00000000  0.00000000  1
  Co  Co6  1  0.19577198  0.69326025  0.69326025  1
  Co  Co7  1  0.69326025  0.69326025  0.19577198  1
  Co  Co8  1  0.69326025  0.19577198  0.69326025  1
  Co  Co9  1  0.80422802  0.30673975  0.30673975  1
  Co  Co10  1  0.30673975  0.30673975  0.80422802  1
  Co  Co11  1  0.30673975  0.80422802  0.30673975  1
  B  B12  1  0.37550561  0.62449439  0.00000000  1
  B  B13  1  0.62449439  1.00000000  0.37550561  1
  B  B14  1  0.00000000  0.37550561  0.62449439  1
  B  B15  1  0.37550561  0.00000000  0.62449439  1
  B  B16  1  1.00000000  0.62449439  0.37550561  1
  B  B17  1  0.62449439  0.37550561  0.00000000  1
