# generated using pymatgen
data_Y2Ge5Ru3
_symmetry_space_group_name_H-M   'P 1'
_cell_length_a   5.79591510
_cell_length_b   8.49542899
_cell_length_c   8.49542902
_cell_angle_alpha   71.25306210
_cell_angle_beta   70.05489098
_cell_angle_gamma   70.05489398
_symmetry_Int_Tables_number   1
_chemical_formula_structural   Y2Ge5Ru3
_chemical_formula_sum   'Y4 Ge10 Ru6'
_cell_volume   359.54228810
_cell_formula_units_Z   2
loop_
 _symmetry_equiv_pos_site_id
 _symmetry_equiv_pos_as_xyz
  1  'x, y, z'
loop_
 _atom_site_type_symbol
 _atom_site_label
 _atom_site_symmetry_multiplicity
 _atom_site_fract_x
 _atom_site_fract_y
 _atom_site_fract_z
 _atom_site_occupancy
  Y  Y0  1  0.86115684  0.37007664  0.90760969  1
  Y  Y1  1  0.63884316  0.09239031  0.62992336  1
  Y  Y2  1  0.13884316  0.62992336  0.09239031  1
  Y  Y3  1  0.36115684  0.90760969  0.37007664  1
  Ge  Ge4  1  0.45719943  0.29280057  0.29280057  1
  Ge  Ge5  1  0.41249945  0.41138191  0.76361918  1
  Ge  Ge6  1  0.08750055  0.23638082  0.58861809  1
  Ge  Ge7  1  0.75000000  0.00000000  0.00000000  1
  Ge  Ge8  1  0.95719943  0.29280057  0.29280057  1
  Ge  Ge9  1  0.25000000  0.00000000  0.00000000  1
  Ge  Ge10  1  0.58750055  0.58861809  0.23638082  1
  Ge  Ge11  1  0.04280057  0.70719943  0.70719943  1
  Ge  Ge12  1  0.91249945  0.76361918  0.41138191  1
  Ge  Ge13  1  0.54280057  0.70719943  0.70719943  1
  Ru  Ru14  1  0.64755938  0.76100785  0.94387339  1
  Ru  Ru15  1  0.85244062  0.05612661  0.23899215  1
  Ru  Ru16  1  0.14755938  0.94387339  0.76100785  1
  Ru  Ru17  1  0.35244062  0.23899215  0.05612661  1
  Ru  Ru18  1  0.75000000  0.50000000  0.50000000  1
  Ru  Ru19  1  0.25000000  0.50000000  0.50000000  1
