# generated using pymatgen
data_La2Ge5Ir3
_symmetry_space_group_name_H-M   'P 1'
_cell_length_a   6.16345998
_cell_length_b   8.55106759
_cell_length_c   8.55106688
_cell_angle_alpha   74.29133194
_cell_angle_beta   68.87577654
_cell_angle_gamma   68.87577446
_symmetry_Int_Tables_number   1
_chemical_formula_structural   La2Ge5Ir3
_chemical_formula_sum   'La4 Ge10 Ir6'
_cell_volume   386.96920712
_cell_formula_units_Z   2
loop_
 _symmetry_equiv_pos_site_id
 _symmetry_equiv_pos_as_xyz
  1  'x, y, z'
loop_
 _atom_site_type_symbol
 _atom_site_label
 _atom_site_symmetry_multiplicity
 _atom_site_fract_x
 _atom_site_fract_y
 _atom_site_fract_z
 _atom_site_occupancy
  La  La0  1  0.86822719  0.36287220  0.90067342  1
  La  La1  1  0.36822719  0.90067342  0.36287220  1
  La  La2  1  0.13177281  0.63712780  0.09932658  1
  La  La3  1  0.63177281  0.09932658  0.63712780  1
  Ge  Ge4  1  0.52291795  0.72708205  0.72708205  1
  Ge  Ge5  1  0.02291795  0.72708205  0.72708205  1
  Ge  Ge6  1  0.75000000  0.00000000  0.00000000  1
  Ge  Ge7  1  0.39848869  0.44426050  0.75876212  1
  Ge  Ge8  1  0.60151131  0.55573950  0.24123788  1
  Ge  Ge9  1  0.97708205  0.27291795  0.27291795  1
  Ge  Ge10  1  0.89848869  0.75876212  0.44426050  1
  Ge  Ge11  1  0.47708205  0.27291795  0.27291795  1
  Ge  Ge12  1  0.10151131  0.24123788  0.55573950  1
  Ge  Ge13  1  0.25000000  0.00000000  0.00000000  1
  Ir  Ir14  1  0.64025794  0.74955791  0.96992621  1
  Ir  Ir15  1  0.85974206  0.03007379  0.25044209  1
  Ir  Ir16  1  0.35974206  0.25044209  0.03007379  1
  Ir  Ir17  1  0.14025794  0.96992621  0.74955791  1
  Ir  Ir18  1  0.25000000  0.50000000  0.50000000  1
  Ir  Ir19  1  0.75000000  0.50000000  0.50000000  1
