# generated using pymatgen
data_LiSi3BiO8
_symmetry_space_group_name_H-M   'P 1'
_cell_length_a   7.76817355
_cell_length_b   7.48554328
_cell_length_c   7.17504125
_cell_angle_alpha   80.40203430
_cell_angle_beta   106.82769641
_cell_angle_gamma   67.06312315
_symmetry_Int_Tables_number   1
_chemical_formula_structural   LiSi3BiO8
_chemical_formula_sum   'Li2 Si6 Bi2 O16'
_cell_volume   348.79603286
_cell_formula_units_Z   2
loop_
 _symmetry_equiv_pos_site_id
 _symmetry_equiv_pos_as_xyz
  1  'x, y, z'
loop_
 _atom_site_type_symbol
 _atom_site_label
 _atom_site_symmetry_multiplicity
 _atom_site_fract_x
 _atom_site_fract_y
 _atom_site_fract_z
 _atom_site_occupancy
  Li  Li0  1  0.84161685  0.80642043  0.81305378  1
  Li  Li1  1  0.82646664  0.41734752  0.33326073  1
  Si  Si2  1  0.17180633  0.58964672  0.65906767  1
  Si  Si3  1  0.44237911  0.79284656  0.62966960  1
  Si  Si4  1  0.18657334  0.17229652  0.76711586  1
  Si  Si5  1  0.18892091  0.16397194  0.21571339  1
  Si  Si6  1  0.78528046  0.84850092  0.21736128  1
  Si  Si7  1  0.55530803  0.20939188  0.37697484  1
  Bi  Bi8  1  0.35706792  0.72178881  0.11689235  1
  Bi  Bi9  1  0.74949854  0.27055884  0.83159980  1
  O  O10  1  0.13300444  0.67511009  0.84314141  1
  O  O11  1  0.32836191  0.95292722  0.74325270  1
  O  O12  1  0.98019928  0.69420235  0.43892646  1
  O  O13  1  0.32504756  0.92530844  0.37980853  1
  O  O14  1  0.22768580  0.10478595  0.01302894  1
  O  O15  1  0.36980232  0.61051376  0.63552954  1
  O  O16  1  0.26743033  0.33740059  0.72061806  1
  O  O17  1  0.68157217  0.66847633  0.72750749  1
  O  O18  1  0.30540087  0.29318633  0.29247976  1
  O  O19  1  0.65692947  0.71874927  0.16957259  1
  O  O20  1  0.57591426  0.41590157  0.30572264  1
  O  O21  1  0.86263030  0.91916062  0.04262665  1
  O  O22  1  0.65931428  0.10297905  0.62301668  1
  O  O23  1  0.94527786  0.26117949  0.64736871  1
  O  O24  1  0.64443748  0.05856993  0.25286185  1
  O  O25  1  0.95287155  0.26937990  0.16762768  1
