# generated using pymatgen
data_P3Rh4
_symmetry_space_group_name_H-M   'P 1'
_cell_length_a   3.49045931
_cell_length_b   11.30913170
_cell_length_c   9.92698821
_cell_angle_alpha   90.00000000
_cell_angle_beta   90.00000000
_cell_angle_gamma   90.00000000
_symmetry_Int_Tables_number   1
_chemical_formula_structural   P3Rh4
_chemical_formula_sum   'P12 Rh16'
_cell_volume   391.85856823
_cell_formula_units_Z   4
loop_
 _symmetry_equiv_pos_site_id
 _symmetry_equiv_pos_as_xyz
  1  'x, y, z'
loop_
 _atom_site_type_symbol
 _atom_site_label
 _atom_site_symmetry_multiplicity
 _atom_site_fract_x
 _atom_site_fract_y
 _atom_site_fract_z
 _atom_site_occupancy
  P  P0  1  0.75000000  0.87228677  0.08960077  1
  P  P1  1  0.25000000  0.88236482  0.74074115  1
  P  P2  1  0.75000000  0.37228677  0.41039923  1
  P  P3  1  0.75000000  0.63601988  0.93294606  1
  P  P4  1  0.25000000  0.36398012  0.06705394  1
  P  P5  1  0.25000000  0.86398012  0.43294606  1
  P  P6  1  0.75000000  0.61763518  0.24074115  1
  P  P7  1  0.25000000  0.12771323  0.91039923  1
  P  P8  1  0.75000000  0.11763518  0.25925885  1
  P  P9  1  0.25000000  0.38236482  0.75925885  1
  P  P10  1  0.75000000  0.13601988  0.56705394  1
  P  P11  1  0.25000000  0.62771323  0.58960077  1
  Rh  Rh12  1  0.75000000  0.47542807  0.61712731  1
  Rh  Rh13  1  0.25000000  0.28917664  0.28149127  1
  Rh  Rh14  1  0.75000000  0.71082336  0.71850873  1
  Rh  Rh15  1  0.75000000  0.93357386  0.59025478  1
  Rh  Rh16  1  0.25000000  0.02457193  0.11712731  1
  Rh  Rh17  1  0.25000000  0.52457193  0.38287269  1
  Rh  Rh18  1  0.75000000  0.97542807  0.88287269  1
  Rh  Rh19  1  0.25000000  0.77651753  0.93672946  1
  Rh  Rh20  1  0.25000000  0.06642614  0.40974522  1
  Rh  Rh21  1  0.75000000  0.72348247  0.43672946  1
  Rh  Rh22  1  0.25000000  0.56642614  0.09025478  1
  Rh  Rh23  1  0.25000000  0.27651753  0.56327054  1
  Rh  Rh24  1  0.25000000  0.78917664  0.21850873  1
  Rh  Rh25  1  0.75000000  0.43357386  0.90974522  1
  Rh  Rh26  1  0.75000000  0.22348247  0.06327054  1
  Rh  Rh27  1  0.75000000  0.21082336  0.78149127  1
