# generated using pymatgen
data_Cs3Cr2I9
_symmetry_space_group_name_H-M   'P 1'
_cell_length_a   8.28119767
_cell_length_b   8.28119577
_cell_length_c   20.83161358
_cell_angle_alpha   90.00007968
_cell_angle_beta   89.99994659
_cell_angle_gamma   120.00003200
_symmetry_Int_Tables_number   1
_chemical_formula_structural   Cs3Cr2I9
_chemical_formula_sum   'Cs6 Cr4 I18'
_cell_volume   1237.19912816
_cell_formula_units_Z   2
loop_
 _symmetry_equiv_pos_site_id
 _symmetry_equiv_pos_as_xyz
  1  'x, y, z'
loop_
 _atom_site_type_symbol
 _atom_site_label
 _atom_site_symmetry_multiplicity
 _atom_site_fract_x
 _atom_site_fract_y
 _atom_site_fract_z
 _atom_site_occupancy
  Cs  Cs0  1  0.33333146  0.66666610  0.42962082  1
  Cs  Cs1  1  0.66666577  0.33333388  0.92962217  1
  Cs  Cs2  1  -0.00000096  -0.00000033  0.25000303  1
  Cs  Cs3  1  0.33333137  0.66666793  0.07038247  1
  Cs  Cs4  1  -0.00000018  0.00000022  0.75000415  1
  Cs  Cs5  1  0.66666541  0.33333257  0.57038658  1
  Cr  Cr6  1  0.66666033  0.33332846  0.16292644  1
  Cr  Cr7  1  0.33331763  0.66662844  0.83703131  1
  Cr  Cr8  1  0.33335509  0.66669259  0.66292226  1
  Cr  Cr9  1  0.66669601  0.33334928  0.33704327  1
  I  I10  1  0.82473359  0.64947069  0.09208946  1
  I  I11  1  0.51628598  0.48371294  0.25000462  1
  I  I12  1  0.51628629  0.03257444  0.25000448  1
  I  I13  1  0.03257434  0.51628833  0.75000310  1
  I  I14  1  0.64946254  0.82473173  0.59209085  1
  I  I15  1  0.17526698  0.82473262  0.59209097  1
  I  I16  1  0.96742347  0.48371194  0.25000485  1
  I  I17  1  0.35052824  0.17526526  0.09208974  1
  I  I18  1  0.82473049  0.17526899  0.40791505  1
  I  I19  1  0.17526603  0.35053301  0.90791565  1
  I  I20  1  0.48371108  0.51628681  0.75000320  1
  I  I21  1  0.17526656  0.35053553  0.59209070  1
  I  I22  1  0.48371062  0.96742523  0.75000308  1
  I  I23  1  0.35053651  0.17526927  0.40791522  1
  I  I24  1  0.82473461  0.17526435  0.09208958  1
  I  I25  1  0.82472998  0.64946235  0.40791520  1
  I  I26  1  0.17526449  0.82473424  0.90791583  1
  I  I27  1  0.64946626  0.82473312  0.90791591  1
