# generated using pymatgen
data_K2RbBiSe3
_symmetry_space_group_name_H-M   'P 1'
_cell_length_a   10.09220988
_cell_length_b   10.09220988
_cell_length_c   10.09220988
_cell_angle_alpha   90.00000000
_cell_angle_beta   90.00000000
_cell_angle_gamma   90.00000000
_symmetry_Int_Tables_number   1
_chemical_formula_structural   K2RbBiSe3
_chemical_formula_sum   'K8 Rb4 Bi4 Se12'
_cell_volume   1027.91882789
_cell_formula_units_Z   4
loop_
 _symmetry_equiv_pos_site_id
 _symmetry_equiv_pos_as_xyz
  1  'x, y, z'
loop_
 _atom_site_type_symbol
 _atom_site_label
 _atom_site_symmetry_multiplicity
 _atom_site_fract_x
 _atom_site_fract_y
 _atom_site_fract_z
 _atom_site_occupancy
  K  K0  1  0.18073490  0.68073490  0.81926510  1
  K  K1  1  0.68073490  0.81926510  0.18073490  1
  K  K2  1  0.81926510  0.18073490  0.68073490  1
  K  K3  1  0.31926510  0.31926510  0.31926510  1
  K  K4  1  0.68648052  0.18648052  0.31351948  1
  K  K5  1  0.18648052  0.31351948  0.68648052  1
  K  K6  1  0.31351948  0.68648052  0.18648052  1
  K  K7  1  0.81351948  0.81351948  0.81351948  1
  Rb  Rb8  1  0.92823510  0.42823510  0.07176490  1
  Rb  Rb9  1  0.42823510  0.07176490  0.92823510  1
  Rb  Rb10  1  0.07176490  0.92823510  0.42823510  1
  Rb  Rb11  1  0.57176490  0.57176490  0.57176490  1
  Bi  Bi12  1  0.46810042  0.96810042  0.53189958  1
  Bi  Bi13  1  0.96810042  0.53189958  0.46810042  1
  Bi  Bi14  1  0.53189958  0.46810042  0.96810042  1
  Bi  Bi15  1  0.03189958  0.03189958  0.03189958  1
  Se  Se16  1  0.00276036  0.77683012  0.10575161  1
  Se  Se17  1  0.89424839  0.50276036  0.72316988  1
  Se  Se18  1  0.27683012  0.39424839  0.99723964  1
  Se  Se19  1  0.50276036  0.72316988  0.89424839  1
  Se  Se20  1  0.39424839  0.99723964  0.27683012  1
  Se  Se21  1  0.77683012  0.10575161  0.00276036  1
  Se  Se22  1  0.99723964  0.27683012  0.39424839  1
  Se  Se23  1  0.10575161  0.00276036  0.77683012  1
  Se  Se24  1  0.72316988  0.89424839  0.50276036  1
  Se  Se25  1  0.49723964  0.22316988  0.60575161  1
  Se  Se26  1  0.60575161  0.49723964  0.22316988  1
  Se  Se27  1  0.22316988  0.60575161  0.49723964  1
