# generated using pymatgen
data_La2Ge5Ru3
_symmetry_space_group_name_H-M   'P 1'
_cell_length_a   5.95140234
_cell_length_b   8.59982033
_cell_length_c   8.59982013
_cell_angle_alpha   71.63334449
_cell_angle_beta   69.75599523
_cell_angle_gamma   69.75599248
_symmetry_Int_Tables_number   1
_chemical_formula_structural   La2Ge5Ru3
_chemical_formula_sum   'La4 Ge10 Ru6'
_cell_volume   377.78599493
_cell_formula_units_Z   2
loop_
 _symmetry_equiv_pos_site_id
 _symmetry_equiv_pos_as_xyz
  1  'x, y, z'
loop_
 _atom_site_type_symbol
 _atom_site_label
 _atom_site_symmetry_multiplicity
 _atom_site_fract_x
 _atom_site_fract_y
 _atom_site_fract_z
 _atom_site_occupancy
  La  La0  1  0.36441090  0.90380875  0.36736946  1
  La  La1  1  0.86441090  0.36736946  0.90380875  1
  La  La2  1  0.13558910  0.63263054  0.09619125  1
  La  La3  1  0.63558910  0.09619125  0.63263054  1
  Ge  Ge4  1  0.40794882  0.42374047  0.76036190  1
  Ge  Ge5  1  0.53826204  0.71173796  0.71173796  1
  Ge  Ge6  1  0.96173796  0.28826204  0.28826204  1
  Ge  Ge7  1  0.09205118  0.23963810  0.57625953  1
  Ge  Ge8  1  0.75000000  0.00000000  0.00000000  1
  Ge  Ge9  1  0.59205118  0.57625953  0.23963810  1
  Ge  Ge10  1  0.90794882  0.76036190  0.42374047  1
  Ge  Ge11  1  0.03826204  0.71173796  0.71173796  1
  Ge  Ge12  1  0.46173796  0.28826204  0.28826204  1
  Ge  Ge13  1  0.25000000  0.00000000  0.00000000  1
  Ru  Ru14  1  0.35479918  0.23945950  0.05094214  1
  Ru  Ru15  1  0.14520082  0.94905786  0.76054050  1
  Ru  Ru16  1  0.64520082  0.76054050  0.94905786  1
  Ru  Ru17  1  0.85479918  0.05094214  0.23945950  1
  Ru  Ru18  1  0.25000000  0.50000000  0.50000000  1
  Ru  Ru19  1  0.75000000  0.50000000  0.50000000  1
