# generated using pymatgen
data_Cs5Nb2S4Cl9
_symmetry_space_group_name_H-M   'P 1'
_cell_length_a   7.39531268
_cell_length_b   10.50532294
_cell_length_c   10.51399848
_cell_angle_alpha   119.97270614
_cell_angle_beta   110.59064869
_cell_angle_gamma   90.00000109
_symmetry_Int_Tables_number   1
_chemical_formula_structural   Cs5Nb2S4Cl9
_chemical_formula_sum   'Cs5 Nb2 S4 Cl9'
_cell_volume   646.65581629
_cell_formula_units_Z   1
loop_
 _symmetry_equiv_pos_site_id
 _symmetry_equiv_pos_as_xyz
  1  'x, y, z'
loop_
 _atom_site_type_symbol
 _atom_site_label
 _atom_site_symmetry_multiplicity
 _atom_site_fract_x
 _atom_site_fract_y
 _atom_site_fract_z
 _atom_site_occupancy
  Cs  Cs0  1  0.66419102  0.44391607  0.32838203  1
  Cs  Cs1  1  0.66419102  0.88446596  0.32838203  1
  Cs  Cs2  1  0.00000000  0.50000000  0.00000000  1
  Cs  Cs3  1  0.33580898  0.55608393  0.67161797  1
  Cs  Cs4  1  0.33580898  0.11553404  0.67161797  1
  Nb  Nb5  1  0.08860097  0.08860097  0.17720195  1
  Nb  Nb6  1  0.91139903  0.91139903  0.82279805  1
  S  S7  1  0.75890923  0.09478154  0.00000000  1
  S  S8  1  0.75890923  0.90521846  1.00000000  1
  S  S9  1  0.24109077  0.90521846  1.00000000  1
  S  S10  1  0.24109077  0.09478154  0.00000000  1
  Cl  Cl11  1  0.96494360  0.20129233  0.40258466  1
  Cl  Cl12  1  0.87151456  0.62723018  0.74302912  1
  Cl  Cl13  1  0.03505640  0.79870767  0.59741534  1
  Cl  Cl14  1  0.12848544  0.37276982  0.25697088  1
  Cl  Cl15  1  0.87151456  0.11579894  0.74302912  1
  Cl  Cl16  1  0.43764106  0.20129233  0.40258466  1
  Cl  Cl17  1  0.56235894  0.79870767  0.59741534  1
  Cl  Cl18  1  0.12848544  0.88420106  0.25697088  1
  Cl  Cl19  1  0.50000000  0.50000000  0.00000000  1
