# generated using pymatgen
data_Cs2NaCoF6
_symmetry_space_group_name_H-M   'P 1'
_cell_length_a   10.80259002
_cell_length_b   10.80258970
_cell_length_c   10.80258956
_cell_angle_alpha   33.78504986
_cell_angle_beta   33.78505245
_cell_angle_gamma   33.78504961
_symmetry_Int_Tables_number   1
_chemical_formula_structural   Cs2NaCoF6
_chemical_formula_sum   'Cs4 Na2 Co2 F12'
_cell_volume   347.34606403
_cell_formula_units_Z   2
loop_
 _symmetry_equiv_pos_site_id
 _symmetry_equiv_pos_as_xyz
  1  'x, y, z'
loop_
 _atom_site_type_symbol
 _atom_site_label
 _atom_site_symmetry_multiplicity
 _atom_site_fract_x
 _atom_site_fract_y
 _atom_site_fract_z
 _atom_site_occupancy
  Cs  Cs0  1  0.28354425  0.28354425  0.28354425  1
  Cs  Cs1  1  0.12782478  0.12782478  0.12782478  1
  Cs  Cs2  1  0.71645575  0.71645575  0.71645575  1
  Cs  Cs3  1  0.87217522  0.87217522  0.87217522  1
  Na  Na4  1  0.40441852  0.40441852  0.40441852  1
  Na  Na5  1  0.59558148  0.59558148  0.59558148  1
  Co  Co6  1  0.00000000  0.00000000  0.00000000  1
  Co  Co7  1  0.50000000  0.50000000  0.50000000  1
  F  F8  1  0.74858907  0.17848565  0.17848565  1
  F  F9  1  0.25141093  0.82151435  0.82151435  1
  F  F10  1  0.17848565  0.74858907  0.17848565  1
  F  F11  1  0.18518380  0.60211839  0.60211839  1
  F  F12  1  0.39788161  0.39788161  0.81481620  1
  F  F13  1  0.82151435  0.82151435  0.25141093  1
  F  F14  1  0.60211839  0.60211839  0.18518380  1
  F  F15  1  0.17848565  0.17848565  0.74858907  1
  F  F16  1  0.39788161  0.81481620  0.39788161  1
  F  F17  1  0.82151435  0.25141093  0.82151435  1
  F  F18  1  0.81481620  0.39788161  0.39788161  1
  F  F19  1  0.60211839  0.18518380  0.60211839  1
