# generated using pymatgen
data_Tl7Sb2
_symmetry_space_group_name_H-M   'P 1'
_cell_length_a   10.36311206
_cell_length_b   10.36311290
_cell_length_c   10.36311208
_cell_angle_alpha   109.47122119
_cell_angle_beta   109.47122282
_cell_angle_gamma   109.47121979
_symmetry_Int_Tables_number   1
_chemical_formula_structural   Tl7Sb2
_chemical_formula_sum   'Tl21 Sb6'
_cell_volume   856.73935711
_cell_formula_units_Z   3
loop_
 _symmetry_equiv_pos_site_id
 _symmetry_equiv_pos_as_xyz
  1  'x, y, z'
loop_
 _atom_site_type_symbol
 _atom_site_label
 _atom_site_symmetry_multiplicity
 _atom_site_fract_x
 _atom_site_fract_y
 _atom_site_fract_z
 _atom_site_occupancy
  Tl  Tl0  1  1.00000000  0.34988808  0.65011192  1
  Tl  Tl1  1  0.69977617  0.34988808  0.34988808  1
  Tl  Tl2  1  0.66356909  0.66356909  0.66356909  1
  Tl  Tl3  1  0.00000000  0.65011192  0.34988808  1
  Tl  Tl4  1  1.00000000  1.00000000  0.66356909  1
  Tl  Tl5  1  0.34988808  0.34988808  0.69977617  1
  Tl  Tl6  1  0.33643091  0.00000000  0.00000000  1
  Tl  Tl7  1  0.65011192  0.00000000  0.34988808  1
  Tl  Tl8  1  0.66356909  1.00000000  1.00000000  1
  Tl  Tl9  1  0.34988808  1.00000000  0.65011192  1
  Tl  Tl10  1  0.00000000  0.00000000  0.33643091  1
  Tl  Tl11  1  0.65011192  0.65011192  0.30022383  1
  Tl  Tl12  1  0.34988808  0.65011192  0.00000000  1
  Tl  Tl13  1  1.00000000  0.33643091  1.00000000  1
  Tl  Tl14  1  0.00000000  0.66356909  0.00000000  1
  Tl  Tl15  1  0.00000000  0.00000000  0.00000000  1
  Tl  Tl16  1  0.65011192  0.34988808  1.00000000  1
  Tl  Tl17  1  0.30022383  0.65011192  0.65011192  1
  Tl  Tl18  1  0.65011192  0.30022383  0.65011192  1
  Tl  Tl19  1  0.34988808  0.69977617  0.34988808  1
  Tl  Tl20  1  0.33643091  0.33643091  0.33643091  1
  Sb  Sb21  1  1.00000000  0.68874821  0.68874821  1
  Sb  Sb22  1  0.00000000  0.31125179  0.31125179  1
  Sb  Sb23  1  0.31125179  0.00000000  0.31125179  1
  Sb  Sb24  1  0.31125179  0.31125179  0.00000000  1
  Sb  Sb25  1  0.68874821  1.00000000  0.68874821  1
  Sb  Sb26  1  0.68874821  0.68874821  1.00000000  1
