# generated using pymatgen
data_TaNi2TeSe
_symmetry_space_group_name_H-M   'P 1'
_cell_length_a   3.51448126
_cell_length_b   6.49518238
_cell_length_c   16.55313617
_cell_angle_alpha   89.98141801
_cell_angle_beta   90.00001696
_cell_angle_gamma   90.00003132
_symmetry_Int_Tables_number   1
_chemical_formula_structural   TaNi2TeSe
_chemical_formula_sum   'Ta4 Ni8 Te4 Se4'
_cell_volume   377.86167607
_cell_formula_units_Z   4
loop_
 _symmetry_equiv_pos_site_id
 _symmetry_equiv_pos_as_xyz
  1  'x, y, z'
loop_
 _atom_site_type_symbol
 _atom_site_label
 _atom_site_symmetry_multiplicity
 _atom_site_fract_x
 _atom_site_fract_y
 _atom_site_fract_z
 _atom_site_occupancy
  Ta  Ta0  1  0.24999997  0.40817904  0.22127636  1
  Ta  Ta1  1  0.74999995  0.59178341  0.77871827  1
  Ta  Ta2  1  0.24999990  0.90812399  0.27868511  1
  Ta  Ta3  1  0.75000003  0.09185700  0.72130076  1
  Ni  Ni4  1  0.74999995  0.10335660  0.18043051  1
  Ni  Ni5  1  0.25000003  0.89663412  0.81952959  1
  Ni  Ni6  1  0.24999990  0.39657793  0.68055061  1
  Ni  Ni7  1  0.25000024  0.28564736  0.82069457  1
  Ni  Ni8  1  0.75000005  0.21434586  0.32053157  1
  Ni  Ni9  1  0.75000005  0.60334869  0.31950906  1
  Ni  Ni10  1  0.74999994  0.71441488  0.17938535  1
  Ni  Ni11  1  0.25000014  0.78567145  0.67944385  1
  Te  Te12  1  0.25000011  0.40966867  0.40289145  1
  Te  Te13  1  0.75000008  0.09027058  0.90285143  1
  Te  Te14  1  0.74999985  0.59030103  0.59711915  1
  Te  Te15  1  0.24999994  0.90969913  0.09710674  1
  Se  Se16  1  0.74999990  0.40897220  0.09986742  1
  Se  Se17  1  0.24999990  0.09112791  0.59988693  1
  Se  Se18  1  0.75000009  0.90891084  0.40010354  1
  Se  Se19  1  0.24999997  0.59110931  0.90011776  1
