# generated using pymatgen
data_LiNbPO5
_symmetry_space_group_name_H-M   'P 1'
_cell_length_a   5.43701573
_cell_length_b   10.70503858
_cell_length_c   7.61866454
_cell_angle_alpha   98.64510414
_cell_angle_beta   69.12774041
_cell_angle_gamma   75.35230748
_symmetry_Int_Tables_number   1
_chemical_formula_structural   LiNbPO5
_chemical_formula_sum   'Li4 Nb4 P4 O20'
_cell_volume   386.43202902
_cell_formula_units_Z   4
loop_
 _symmetry_equiv_pos_site_id
 _symmetry_equiv_pos_as_xyz
  1  'x, y, z'
loop_
 _atom_site_type_symbol
 _atom_site_label
 _atom_site_symmetry_multiplicity
 _atom_site_fract_x
 _atom_site_fract_y
 _atom_site_fract_z
 _atom_site_occupancy
  Li  Li0  1  0.24992456  0.25182377  0.24570548  1
  Li  Li1  1  0.25111431  0.24900301  0.75091956  1
  Li  Li2  1  0.74677310  0.75027043  0.24611448  1
  Li  Li3  1  0.24500392  0.75025075  0.75098921  1
  Nb  Nb4  1  0.49991357  0.99890128  0.49923603  1
  Nb  Nb5  1  0.74875213  0.24938215  0.25194969  1
  Nb  Nb6  1  0.99949575  0.49956695  0.00079593  1
  Nb  Nb7  1  0.74841200  0.74950540  0.74912243  1
  P  P8  1  0.81484323  0.06117594  0.81051785  1
  P  P9  1  0.68389101  0.43766182  0.69009991  1
  P  P10  1  0.31066518  0.56173789  0.31266526  1
  P  P11  1  0.18765630  0.93786367  0.18783648  1
  O  O12  1  0.10565408  0.09093620  0.20299297  1
  O  O13  1  0.67341596  0.14752994  0.02401641  1
  O  O14  1  0.08643342  0.09215259  0.70463412  1
  O  O15  1  0.00190754  0.33281202  0.08537079  1
  O  O16  1  0.60679231  0.09567933  0.71616893  1
  O  O17  1  0.49726387  0.16644473  0.41746140  1
  O  O18  1  0.39192926  0.40916879  0.30105120  1
  O  O19  1  0.82834009  0.35035616  0.47711812  1
  O  O20  1  0.11290500  0.59175392  0.20725713  1
  O  O21  1  0.57871941  0.59642235  0.21712020  1
  O  O22  1  0.41186752  0.40607127  0.79439352  1
  O  O23  1  0.88863572  0.40391627  0.78718880  1
  O  O24  1  0.59832418  0.59007458  0.70234772  1
  O  O25  1  0.15392096  0.64812824  0.52563422  1
  O  O26  1  0.92058752  0.90334352  0.28303477  1
  O  O27  1  0.91409007  0.66709457  0.91771321  1
  O  O28  1  0.38682907  0.90631709  0.29204047  1
  O  O29  1  0.58114695  0.83159159  0.58125770  1
  O  O30  1  0.34322624  0.85250839  0.97375259  1
  O  O31  1  0.89966678  0.90826038  0.79613343  1
