# generated using pymatgen
data_V(SeO3)2
_symmetry_space_group_name_H-M   'P 1'
_cell_length_a   7.92537938
_cell_length_b   11.53507108
_cell_length_c   11.53507108
_cell_angle_alpha   90.00000000
_cell_angle_beta   90.00000000
_cell_angle_gamma   90.00000000
_symmetry_Int_Tables_number   1
_chemical_formula_structural   V(SeO3)2
_chemical_formula_sum   'V8 Se16 O48'
_cell_volume   1054.53405820
_cell_formula_units_Z   8
loop_
 _symmetry_equiv_pos_site_id
 _symmetry_equiv_pos_as_xyz
  1  'x, y, z'
loop_
 _atom_site_type_symbol
 _atom_site_label
 _atom_site_symmetry_multiplicity
 _atom_site_fract_x
 _atom_site_fract_y
 _atom_site_fract_z
 _atom_site_occupancy
  V  V0  1  0.09953537  0.50000000  0.00000000  1
  V  V1  1  0.43308340  0.50000000  0.50000000  1
  V  V2  1  0.66409241  0.00000000  0.00000000  1
  V  V3  1  0.93308340  0.50000000  0.50000000  1
  V  V4  1  0.16409241  0.00000000  0.00000000  1
  V  V5  1  0.59953537  0.00000000  0.50000000  1
  V  V6  1  0.59953537  0.50000000  0.00000000  1
  V  V7  1  0.09953537  0.00000000  0.50000000  1
  Se  Se8  1  0.60733479  0.71844258  0.63111289  1
  Se  Se9  1  0.49858707  0.24108185  0.10333980  1
  Se  Se10  1  0.49858707  0.75891815  0.89666020  1
  Se  Se11  1  0.49858707  0.10333980  0.75891815  1
  Se  Se12  1  0.99858707  0.24108185  0.89666020  1
  Se  Se13  1  0.60733479  0.36888711  0.71844258  1
  Se  Se14  1  0.60733479  0.63111289  0.28155742  1
  Se  Se15  1  0.99858707  0.89666020  0.75891815  1
  Se  Se16  1  0.10733479  0.36888711  0.28155742  1
  Se  Se17  1  0.10733479  0.63111289  0.71844258  1
  Se  Se18  1  0.10733479  0.28155742  0.63111289  1
  Se  Se19  1  0.10733479  0.71844258  0.36888711  1
  Se  Se20  1  0.99858707  0.10333980  0.24108185  1
  Se  Se21  1  0.99858707  0.75891815  0.10333980  1
  Se  Se22  1  0.60733479  0.28155742  0.36888711  1
  Se  Se23  1  0.49858707  0.89666020  0.24108185  1
  O  O24  1  0.44024943  0.25609970  0.25587815  1
  O  O25  1  0.21974917  0.50000000  0.50000000  1
  O  O26  1  0.47061340  0.47505657  0.67120287  1
  O  O27  1  0.37673656  0.00000000  0.00000000  1
  O  O28  1  0.62725361  0.87810049  0.12208591  1
  O  O29  1  0.39020597  0.50000000  0.00000000  1
  O  O30  1  0.97061340  0.47505657  0.32879713  1
  O  O31  1  0.65149820  0.85512347  0.59265080  1
  O  O32  1  0.64210245  0.91077998  0.34989354  1
  O  O33  1  0.97061340  0.52494343  0.67120287  1
  O  O34  1  0.94024943  0.25587815  0.25609970  1
  O  O35  1  0.14210245  0.34989354  0.91077998  1
  O  O36  1  0.94024943  0.74412185  0.74390030  1
  O  O37  1  0.47061340  0.32879713  0.47505657  1
  O  O38  1  0.89020597  0.00000000  0.50000000  1
  O  O39  1  0.14210245  0.08922002  0.34989354  1
  O  O40  1  0.64210245  0.34989354  0.08922002  1
  O  O41  1  0.62725361  0.12189951  0.87791409  1
  O  O42  1  0.65149820  0.40734920  0.85512347  1
  O  O43  1  0.62725361  0.12208591  0.12189951  1
  O  O44  1  0.15149820  0.85512347  0.40734920  1
  O  O45  1  0.12725361  0.12208591  0.87810049  1
  O  O46  1  0.47061340  0.67120287  0.52494343  1
  O  O47  1  0.12725361  0.87810049  0.87791409  1
  O  O48  1  0.44024943  0.74390030  0.74412185  1
  O  O49  1  0.71974917  0.50000000  0.50000000  1
  O  O50  1  0.44024943  0.25587815  0.74390030  1
  O  O51  1  0.64210245  0.65010646  0.91077998  1
  O  O52  1  0.62725361  0.87791409  0.87810049  1
  O  O53  1  0.94024943  0.25609970  0.74412185  1
  O  O54  1  0.15149820  0.14487653  0.59265080  1
  O  O55  1  0.87673656  0.00000000  0.00000000  1
  O  O56  1  0.64210245  0.08922002  0.65010646  1
  O  O57  1  0.89020597  0.50000000  0.00000000  1
  O  O58  1  0.47061340  0.52494343  0.32879713  1
  O  O59  1  0.12725361  0.87791409  0.12189951  1
  O  O60  1  0.97061340  0.67120287  0.47505657  1
  O  O61  1  0.65149820  0.14487653  0.40734920  1
  O  O62  1  0.44024943  0.74412185  0.25609970  1
  O  O63  1  0.12725361  0.12189951  0.12208591  1
  O  O64  1  0.15149820  0.59265080  0.85512347  1
  O  O65  1  0.14210245  0.91077998  0.65010646  1
  O  O66  1  0.14210245  0.65010646  0.08922002  1
  O  O67  1  0.39020597  0.00000000  0.50000000  1
  O  O68  1  0.97061340  0.32879713  0.52494343  1
  O  O69  1  0.65149820  0.59265080  0.14487653  1
  O  O70  1  0.15149820  0.40734920  0.14487653  1
  O  O71  1  0.94024943  0.74390030  0.25587815  1
