# generated using pymatgen
data_BAs5(Pb3O10)2
_symmetry_space_group_name_H-M   'P 1'
_cell_length_a   7.33758330
_cell_length_b   7.33699512
_cell_length_c   10.28953942
_cell_angle_alpha   89.99603134
_cell_angle_beta   90.00149507
_cell_angle_gamma   90.00589602
_symmetry_Int_Tables_number   1
_chemical_formula_structural   BAs5(Pb3O10)2
_chemical_formula_sum   'B1 As5 Pb6 O20'
_cell_volume   553.94571441
_cell_formula_units_Z   1
loop_
 _symmetry_equiv_pos_site_id
 _symmetry_equiv_pos_as_xyz
  1  'x, y, z'
loop_
 _atom_site_type_symbol
 _atom_site_label
 _atom_site_symmetry_multiplicity
 _atom_site_fract_x
 _atom_site_fract_y
 _atom_site_fract_z
 _atom_site_occupancy
  B  B0  1  0.50007179  0.50005893  0.49999768  1
  As  As1  1  0.68339411  0.70729138  0.71455882  1
  As  As2  1  0.31664531  0.29274190  0.71464729  1
  As  As3  1  0.29270304  0.68335446  0.28544305  1
  As  As4  1  0.00004134  0.00004275  0.99999867  1
  As  As5  1  0.70715925  0.31657268  0.28534984  1
  Pb  Pb6  1  0.00000053  0.49995057  0.00317283  1
  Pb  Pb7  1  0.20328696  0.20208046  0.30856962  1
  Pb  Pb8  1  0.79662968  0.79790727  0.30846649  1
  Pb  Pb9  1  0.49984041  0.99987295  0.99682749  1
  Pb  Pb10  1  0.20187167  0.79670828  0.69143232  1
  Pb  Pb11  1  0.79780443  0.20347491  0.69157127  1
  O  O12  1  0.78982807  0.52138027  0.77822994  1
  O  O13  1  0.66553265  0.45442391  0.42397163  1
  O  O14  1  0.15656800  0.86855958  0.91607020  1
  O  O15  1  0.52119688  0.21018255  0.22169222  1
  O  O16  1  0.51751358  0.79838229  0.81264340  1
  O  O17  1  0.15511333  0.13685693  0.66743312  1
  O  O18  1  0.84357783  0.13186596  0.91628741  1
  O  O19  1  0.13180245  0.15642821  0.08387307  1
  O  O20  1  0.79841453  0.48239024  0.18724915  1
  O  O21  1  0.21018539  0.47854129  0.77839589  1
  O  O22  1  0.45468393  0.33465617  0.57615467  1
  O  O23  1  0.54569392  0.66565994  0.57586491  1
  O  O24  1  0.86299035  0.15488869  0.33235489  1
  O  O25  1  0.48247959  0.20144016  0.81271844  1
  O  O26  1  0.20141413  0.51752157  0.18738623  1
  O  O27  1  0.84509697  0.86319600  0.66764585  1
  O  O28  1  0.13689273  0.84497985  0.33253365  1
  O  O29  1  0.33451306  0.54546057  0.42403084  1
  O  O30  1  0.47862229  0.78972251  0.22167492  1
  O  O31  1  0.86843182  0.84340576  0.08375322  1
