# generated using pymatgen
data_ErNiSn
_symmetry_space_group_name_H-M   'P 1'
_cell_length_a   4.44754921
_cell_length_b   7.07520207
_cell_length_c   7.69274056
_cell_angle_alpha   90.00858394
_cell_angle_beta   90.00036846
_cell_angle_gamma   89.99966537
_symmetry_Int_Tables_number   1
_chemical_formula_structural   ErNiSn
_chemical_formula_sum   'Er4 Ni4 Sn4'
_cell_volume   242.06984448
_cell_formula_units_Z   4
loop_
 _symmetry_equiv_pos_site_id
 _symmetry_equiv_pos_as_xyz
  1  'x, y, z'
loop_
 _atom_site_type_symbol
 _atom_site_label
 _atom_site_symmetry_multiplicity
 _atom_site_fract_x
 _atom_site_fract_y
 _atom_site_fract_z
 _atom_site_occupancy
  Er  Er0  1  0.74999862  0.50812767  0.20346350  1
  Er  Er1  1  0.74999980  0.00809089  0.29652475  1
  Er  Er2  1  0.24999867  0.99181440  0.70348869  1
  Er  Er3  1  0.25000070  0.49182679  0.79651044  1
  Ni  Ni4  1  0.75000134  0.80055322  0.91310016  1
  Ni  Ni5  1  0.24999903  0.19944935  0.08694107  1
  Ni  Ni6  1  0.74999823  0.30084921  0.58687955  1
  Ni  Ni7  1  0.25000001  0.69937512  0.41308863  1
  Sn  Sn8  1  0.75000033  0.19424142  0.91362086  1
  Sn  Sn9  1  0.75000606  0.69425515  0.58640010  1
  Sn  Sn10  1  0.24999713  0.80571522  0.08635657  1
  Sn  Sn11  1  0.25000009  0.30570156  0.41362568  1
