# generated using pymatgen
data_Er2Mn3Si5
_symmetry_space_group_name_H-M   'P 1'
_cell_length_a   5.39286303
_cell_length_b   10.52298701
_cell_length_c   10.52298701
_cell_angle_alpha   90.00000000
_cell_angle_beta   90.00000000
_cell_angle_gamma   90.00000000
_symmetry_Int_Tables_number   1
_chemical_formula_structural   Er2Mn3Si5
_chemical_formula_sum   'Er8 Mn12 Si20'
_cell_volume   597.16928038
_cell_formula_units_Z   4
loop_
 _symmetry_equiv_pos_site_id
 _symmetry_equiv_pos_as_xyz
  1  'x, y, z'
loop_
 _atom_site_type_symbol
 _atom_site_label
 _atom_site_symmetry_multiplicity
 _atom_site_fract_x
 _atom_site_fract_y
 _atom_site_fract_z
 _atom_site_occupancy
  Er  Er0  1  0.50000000  0.73789619  0.57334868  1
  Er  Er1  1  0.00000000  0.07334868  0.23789619  1
  Er  Er2  1  0.00000000  0.92665132  0.76210381  1
  Er  Er3  1  0.50000000  0.57334868  0.26210381  1
  Er  Er4  1  0.50000000  0.26210381  0.42665132  1
  Er  Er5  1  0.50000000  0.42665132  0.73789619  1
  Er  Er6  1  0.00000000  0.76210381  0.07334868  1
  Er  Er7  1  0.00000000  0.23789619  0.92665132  1
  Mn  Mn8  1  0.50000000  0.87913093  0.14356349  1
  Mn  Mn9  1  0.00000000  0.62086907  0.64356349  1
  Mn  Mn10  1  0.50000000  0.12086907  0.85643651  1
  Mn  Mn11  1  0.50000000  0.14356349  0.12086907  1
  Mn  Mn12  1  0.00000000  0.64356349  0.37913093  1
  Mn  Mn13  1  0.00000000  0.37913093  0.35643651  1
  Mn  Mn14  1  0.25000000  0.00000000  0.50000000  1
  Mn  Mn15  1  0.50000000  0.85643651  0.87913093  1
  Mn  Mn16  1  0.00000000  0.35643651  0.62086907  1
  Mn  Mn17  1  0.75000000  0.00000000  0.50000000  1
  Mn  Mn18  1  0.75000000  0.50000000  0.00000000  1
  Mn  Mn19  1  0.25000000  0.50000000  0.00000000  1
  Si  Si20  1  0.74800183  0.00000000  0.00000000  1
  Si  Si21  1  0.25000000  0.82326100  0.32326100  1
  Si  Si22  1  0.00000000  0.18511901  0.47657146  1
  Si  Si23  1  0.75000000  0.32326100  0.17673900  1
  Si  Si24  1  0.75000000  0.17673900  0.67673900  1
  Si  Si25  1  0.75000000  0.67673900  0.82326100  1
  Si  Si26  1  0.50000000  0.97657146  0.68511901  1
  Si  Si27  1  0.75199817  0.50000000  0.50000000  1
  Si  Si28  1  0.50000000  0.02342854  0.31488099  1
  Si  Si29  1  0.00000000  0.52342854  0.18511901  1
  Si  Si30  1  0.00000000  0.47657146  0.81488099  1
  Si  Si31  1  0.25000000  0.17673900  0.67673900  1
  Si  Si32  1  0.50000000  0.31488099  0.97657146  1
  Si  Si33  1  0.50000000  0.68511901  0.02342854  1
  Si  Si34  1  0.25000000  0.32326100  0.17673900  1
  Si  Si35  1  0.00000000  0.81488099  0.52342854  1
  Si  Si36  1  0.75000000  0.82326100  0.32326100  1
  Si  Si37  1  0.25199817  0.00000000  0.00000000  1
  Si  Si38  1  0.25000000  0.67673900  0.82326100  1
  Si  Si39  1  0.24800183  0.50000000  0.50000000  1
