# generated using pymatgen
data_Ba2TmCu3O7
_symmetry_space_group_name_H-M   'P 1'
_cell_length_a   3.83275157
_cell_length_b   3.90140034
_cell_length_c   11.73892708
_cell_angle_alpha   90.00000000
_cell_angle_beta   90.00000000
_cell_angle_gamma   90.00000000
_symmetry_Int_Tables_number   1
_chemical_formula_structural   Ba2TmCu3O7
_chemical_formula_sum   'Ba2 Tm1 Cu3 O7'
_cell_volume   175.53333031
_cell_formula_units_Z   1
loop_
 _symmetry_equiv_pos_site_id
 _symmetry_equiv_pos_as_xyz
  1  'x, y, z'
loop_
 _atom_site_type_symbol
 _atom_site_label
 _atom_site_symmetry_multiplicity
 _atom_site_fract_x
 _atom_site_fract_y
 _atom_site_fract_z
 _atom_site_occupancy
  Ba  Ba0  1  0.50000000  0.50000000  0.18271106  1
  Ba  Ba1  1  0.50000000  0.50000000  0.81728894  1
  Tm  Tm2  1  0.50000000  0.50000000  0.50000000  1
  Cu  Cu3  1  -0.00000000  -0.00000000  0.63999705  1
  Cu  Cu4  1  -0.00000000  0.00000000  0.36000295  1
  Cu  Cu5  1  -0.00000000  0.00000000  0.00000000  1
  O  O6  1  0.50000000  0.00000000  0.38142479  1
  O  O7  1  0.00000000  -0.00000000  0.83994095  1
  O  O8  1  0.50000000  0.00000000  0.61857521  1
  O  O9  1  0.00000000  0.50000000  0.38184074  1
  O  O10  1  0.00000000  0.50000000  0.61815926  1
  O  O11  1  0.00000000  -0.00000000  0.16005905  1
  O  O12  1  -0.00000000  0.50000000  -0.00000000  1
