# generated using pymatgen
data_Ca3Co(SeO3)4
_symmetry_space_group_name_H-M   'P 1'
_cell_length_a   7.70424761
_cell_length_b   7.70424707
_cell_length_c   12.64725130
_cell_angle_alpha   107.73300984
_cell_angle_beta   107.73300857
_cell_angle_gamma   90.00000492
_symmetry_Int_Tables_number   1
_chemical_formula_structural   Ca3Co(SeO3)4
_chemical_formula_sum   'Ca6 Co2 Se8 O24'
_cell_volume   677.47207793
_cell_formula_units_Z   2
loop_
 _symmetry_equiv_pos_site_id
 _symmetry_equiv_pos_as_xyz
  1  'x, y, z'
loop_
 _atom_site_type_symbol
 _atom_site_label
 _atom_site_symmetry_multiplicity
 _atom_site_fract_x
 _atom_site_fract_y
 _atom_site_fract_z
 _atom_site_occupancy
  Ca  Ca0  1  0.80139793  0.55139793  0.10279586  1
  Ca  Ca1  1  0.37500000  0.62500000  0.25000000  1
  Ca  Ca2  1  0.19860207  0.44860207  0.89720414  1
  Ca  Ca3  1  0.44860207  0.19860207  0.39720414  1
  Ca  Ca4  1  0.55139793  0.80139793  0.60279586  1
  Ca  Ca5  1  0.62500000  0.37500000  0.75000000  1
  Co  Co6  1  0.12500000  0.87500000  0.75000000  1
  Co  Co7  1  0.87500000  0.12500000  0.25000000  1
  Se  Se8  1  0.48752990  0.88937492  0.11672178  1
  Se  Se9  1  0.11062508  0.87080813  0.38327822  1
  Se  Se10  1  0.88937492  0.12919187  0.61672178  1
  Se  Se11  1  0.77265315  0.51247010  0.38327822  1
  Se  Se12  1  0.22734685  0.48752990  0.61672178  1
  Se  Se13  1  0.87080813  0.77265315  0.88327822  1
  Se  Se14  1  0.12919187  0.22734685  0.11672178  1
  Se  Se15  1  0.51247010  0.11062508  0.88327822  1
  O  O16  1  0.86550117  0.59819954  0.94003591  1
  O  O17  1  0.11287904  0.07541371  0.34900463  1
  O  O18  1  0.34183637  0.86550117  0.44003591  1
  O  O19  1  0.92843771  0.29533264  0.74982387  1
  O  O20  1  0.27359093  0.11287904  0.84900463  1
  O  O21  1  0.57453474  0.34183637  0.94003591  1
  O  O22  1  0.32138616  0.45449124  0.74982387  1
  O  O23  1  0.88712096  0.92458629  0.65099537  1
  O  O24  1  0.65816363  0.13449883  0.55996409  1
  O  O25  1  0.45449124  0.92843771  0.24982387  1
  O  O26  1  0.29533264  0.32138616  0.24982387  1
  O  O27  1  0.42546526  0.65816363  0.05996409  1
  O  O28  1  0.70466736  0.67861384  0.75017613  1
  O  O29  1  0.40180046  0.42546526  0.55996409  1
  O  O30  1  0.07541371  0.73612559  0.84900463  1
  O  O31  1  0.92458629  0.26387441  0.15099537  1
  O  O32  1  0.54550876  0.07156229  0.75017613  1
  O  O33  1  0.07156229  0.70466736  0.25017613  1
  O  O34  1  0.26387441  0.72640907  0.65099537  1
  O  O35  1  0.73612559  0.27359093  0.34900463  1
  O  O36  1  0.13449883  0.40180046  0.05996409  1
  O  O37  1  0.72640907  0.88712096  0.15099537  1
  O  O38  1  0.67861384  0.54550876  0.25017613  1
  O  O39  1  0.59819954  0.57453474  0.44003591  1
