# generated using pymatgen
data_Ho3Co
_symmetry_space_group_name_H-M   'P 1'
_cell_length_a   6.19487938
_cell_length_b   6.90575129
_cell_length_c   9.35411814
_cell_angle_alpha   90.00000000
_cell_angle_beta   90.00000000
_cell_angle_gamma   90.00000000
_symmetry_Int_Tables_number   1
_chemical_formula_structural   Ho3Co
_chemical_formula_sum   'Ho12 Co4'
_cell_volume   400.17194537
_cell_formula_units_Z   4
loop_
 _symmetry_equiv_pos_site_id
 _symmetry_equiv_pos_as_xyz
  1  'x, y, z'
loop_
 _atom_site_type_symbol
 _atom_site_label
 _atom_site_symmetry_multiplicity
 _atom_site_fract_x
 _atom_site_fract_y
 _atom_site_fract_z
 _atom_site_occupancy
  Ho  Ho0  1  0.67631082  0.17536978  0.06736518  1
  Ho  Ho1  1  0.35956704  0.54153235  0.25000000  1
  Ho  Ho2  1  0.14043296  0.04153235  0.25000000  1
  Ho  Ho3  1  0.82368918  0.67536978  0.43263482  1
  Ho  Ho4  1  0.32368918  0.82463022  0.93263482  1
  Ho  Ho5  1  0.17631082  0.32463022  0.56736518  1
  Ho  Ho6  1  0.67631082  0.17536978  0.43263482  1
  Ho  Ho7  1  0.17631082  0.32463022  0.93263482  1
  Ho  Ho8  1  0.32368918  0.82463022  0.56736518  1
  Ho  Ho9  1  0.85956704  0.95846765  0.75000000  1
  Ho  Ho10  1  0.64043296  0.45846765  0.75000000  1
  Ho  Ho11  1  0.82368918  0.67536978  0.06736518  1
  Co  Co12  1  0.94919447  0.38785301  0.25000000  1
  Co  Co13  1  0.44919447  0.11214699  0.75000000  1
  Co  Co14  1  0.55080553  0.88785301  0.25000000  1
  Co  Co15  1  0.05080553  0.61214699  0.75000000  1
