# generated using pymatgen
data_Tb3Ni
_symmetry_space_group_name_H-M   'P 1'
_cell_length_a   6.33576162
_cell_length_b   6.85324106
_cell_length_c   9.62765965
_cell_angle_alpha   90.00000000
_cell_angle_beta   90.00000000
_cell_angle_gamma   90.00000000
_symmetry_Int_Tables_number   1
_chemical_formula_structural   Tb3Ni
_chemical_formula_sum   'Tb12 Ni4'
_cell_volume   418.03781201
_cell_formula_units_Z   4
loop_
 _symmetry_equiv_pos_site_id
 _symmetry_equiv_pos_as_xyz
  1  'x, y, z'
loop_
 _atom_site_type_symbol
 _atom_site_label
 _atom_site_symmetry_multiplicity
 _atom_site_fract_x
 _atom_site_fract_y
 _atom_site_fract_z
 _atom_site_occupancy
  Tb  Tb0  1  0.32352547  0.67893378  0.06624788  1
  Tb  Tb1  1  0.17647453  0.17893378  0.43375212  1
  Tb  Tb2  1  0.67647453  0.32106622  0.56624788  1
  Tb  Tb3  1  0.82352547  0.82106622  0.93375212  1
  Tb  Tb4  1  0.67647453  0.32106622  0.93375212  1
  Tb  Tb5  1  0.82352547  0.82106622  0.56624788  1
  Tb  Tb6  1  0.32352547  0.67893378  0.43375212  1
  Tb  Tb7  1  0.17647453  0.17893378  0.06624788  1
  Tb  Tb8  1  0.85656899  0.53649826  0.25000000  1
  Tb  Tb9  1  0.64343101  0.03649826  0.25000000  1
  Tb  Tb10  1  0.14343101  0.46350174  0.75000000  1
  Tb  Tb11  1  0.35656899  0.96350174  0.75000000  1
  Ni  Ni12  1  0.05856603  0.89004252  0.25000000  1
  Ni  Ni13  1  0.44143397  0.39004252  0.25000000  1
  Ni  Ni14  1  0.94143397  0.10995748  0.75000000  1
  Ni  Ni15  1  0.55856603  0.60995748  0.75000000  1
