# generated using pymatgen
data_Sm2Ga9Ru5
_symmetry_space_group_name_H-M   'P 1'
_cell_length_a   6.21890154
_cell_length_b   6.21890224
_cell_length_c   8.12472483
_cell_angle_alpha   112.50193469
_cell_angle_beta   112.50193736
_cell_angle_gamma   89.99999819
_symmetry_Int_Tables_number   1
_chemical_formula_structural   Sm2Ga9Ru5
_chemical_formula_sum   'Sm2 Ga9 Ru5'
_cell_volume   264.21891200
_cell_formula_units_Z   1
loop_
 _symmetry_equiv_pos_site_id
 _symmetry_equiv_pos_as_xyz
  1  'x, y, z'
loop_
 _atom_site_type_symbol
 _atom_site_label
 _atom_site_symmetry_multiplicity
 _atom_site_fract_x
 _atom_site_fract_y
 _atom_site_fract_z
 _atom_site_occupancy
  Sm  Sm0  1  0.50000000  0.00000000  -0.00000000  1
  Sm  Sm1  1  -0.00000000  0.50000000  -0.00000000  1
  Ga  Ga2  1  0.85924711  0.44102235  0.30026946  1
  Ga  Ga3  1  0.14075289  0.14075289  0.69973054  1
  Ga  Ga4  1  0.44102235  0.85924711  0.30026946  1
  Ga  Ga5  1  0.85924711  0.85924711  0.30026946  1
  Ga  Ga6  1  0.14075289  0.55897765  0.69973054  1
  Ga  Ga7  1  0.55897765  0.14075289  0.69973054  1
  Ga  Ga8  1  0.55897765  0.55897765  0.69973054  1
  Ga  Ga9  1  -0.00000000  0.00000000  -0.00000000  1
  Ga  Ga10  1  0.44102235  0.44102235  0.30026946  1
  Ru  Ru11  1  0.17885595  0.17885595  0.35771190  1
  Ru  Ru12  1  0.82114405  0.82114405  0.64228810  1
  Ru  Ru13  1  0.75000000  0.25000000  0.50000000  1
  Ru  Ru14  1  0.25000000  0.75000000  0.50000000  1
  Ru  Ru15  1  0.50000000  0.50000000  -0.00000000  1
