# generated using pymatgen
data_LiSn(PO3)3
_symmetry_space_group_name_H-M   'P 1'
_cell_length_a   7.76455228
_cell_length_b   10.54054174
_cell_length_c   12.24109780
_cell_angle_alpha   90.00000000
_cell_angle_beta   90.00000000
_cell_angle_gamma   90.00000000
_symmetry_Int_Tables_number   1
_chemical_formula_structural   LiSn(PO3)3
_chemical_formula_sum   'Li4 Sn4 P12 O36'
_cell_volume   1001.84311657
_cell_formula_units_Z   4
loop_
 _symmetry_equiv_pos_site_id
 _symmetry_equiv_pos_as_xyz
  1  'x, y, z'
loop_
 _atom_site_type_symbol
 _atom_site_label
 _atom_site_symmetry_multiplicity
 _atom_site_fract_x
 _atom_site_fract_y
 _atom_site_fract_z
 _atom_site_occupancy
  Li  Li0  1  0.94841537  0.37354546  0.01329200  1
  Li  Li1  1  0.55158463  0.62645454  0.51329200  1
  Li  Li2  1  0.44841537  0.12645454  0.98670800  1
  Li  Li3  1  0.05158463  0.87354546  0.48670800  1
  Sn  Sn4  1  0.19698550  0.22803522  0.64864066  1
  Sn  Sn5  1  0.30301450  0.77196478  0.14864066  1
  Sn  Sn6  1  0.69698550  0.27196478  0.35135934  1
  Sn  Sn7  1  0.80301450  0.72803522  0.85135934  1
  P  P8  1  0.18185771  0.02361223  0.29515340  1
  P  P9  1  0.18561253  0.46750742  0.18200845  1
  P  P10  1  0.24362316  0.70448566  0.87320168  1
  P  P11  1  0.25637684  0.29551434  0.37320168  1
  P  P12  1  0.31438747  0.53249258  0.68200845  1
  P  P13  1  0.31814229  0.97638777  0.79515340  1
  P  P14  1  0.68185771  0.47638777  0.70484660  1
  P  P15  1  0.68561253  0.03249258  0.81799155  1
  P  P16  1  0.74362316  0.79551434  0.12679832  1
  P  P17  1  0.75637684  0.20448566  0.62679832  1
  P  P18  1  0.81438747  0.96750742  0.31799155  1
  P  P19  1  0.81814229  0.52361223  0.20484660  1
  O  O20  1  0.02163990  0.56410309  0.20022905  1
  O  O21  1  0.06309112  0.65198599  0.88045232  1
  O  O22  1  0.14753224  0.37108577  0.28445376  1
  O  O23  1  0.15631942  0.45421928  0.70097676  1
  O  O24  1  0.22444507  0.84379328  0.82411947  1
  O  O25  1  0.23448545  0.99553427  0.17932670  1
  O  O26  1  0.21479968  0.92730273  0.38292717  1
  O  O27  1  0.16391575  0.39269395  0.07903062  1
  O  O28  1  0.14807279  0.29255147  0.47528697  1
  O  O29  1  0.35192721  0.70744853  0.97528697  1
  O  O30  1  0.33608425  0.60730605  0.57903062  1
  O  O31  1  0.28520032  0.07269727  0.88292717  1
  O  O32  1  0.26551455  0.00446573  0.67932670  1
  O  O33  1  0.27555493  0.15620672  0.32411947  1
  O  O34  1  0.34368058  0.54578072  0.20097676  1
  O  O35  1  0.35246776  0.62891423  0.78445376  1
  O  O36  1  0.43690888  0.34801401  0.38045232  1
  O  O37  1  0.47836010  0.43589691  0.70022905  1
  O  O38  1  0.52163990  0.93589691  0.79977095  1
  O  O39  1  0.56309112  0.84801401  0.11954768  1
  O  O40  1  0.64753224  0.12891423  0.71554624  1
  O  O41  1  0.65631942  0.04578072  0.29902324  1
  O  O42  1  0.72444507  0.65620672  0.17588053  1
  O  O43  1  0.73448545  0.50446573  0.82067330  1
  O  O44  1  0.71479968  0.57269727  0.61707283  1
  O  O45  1  0.66391575  0.10730605  0.92096938  1
  O  O46  1  0.64807279  0.20744853  0.52471303  1
  O  O47  1  0.85192721  0.79255147  0.02471303  1
  O  O48  1  0.83608425  0.89269395  0.42096938  1
  O  O49  1  0.78520032  0.42730273  0.11707283  1
  O  O50  1  0.76551455  0.49553427  0.32067330  1
  O  O51  1  0.77555493  0.34379328  0.67588053  1
  O  O52  1  0.84368058  0.95421928  0.79902324  1
  O  O53  1  0.85246776  0.87108577  0.21554624  1
  O  O54  1  0.93690888  0.15198599  0.61954768  1
  O  O55  1  0.97836010  0.06410309  0.29977095  1
