# generated using pymatgen
data_Yb5(InSb3)2
_symmetry_space_group_name_H-M   'P 1'
_cell_length_a   4.54652585
_cell_length_b   7.45771073
_cell_length_c   23.15854583
_cell_angle_alpha   90.00000000
_cell_angle_beta   90.00000000
_cell_angle_gamma   90.00000000
_symmetry_Int_Tables_number   1
_chemical_formula_structural   Yb5(InSb3)2
_chemical_formula_sum   'Yb10 In4 Sb12'
_cell_volume   785.22927803
_cell_formula_units_Z   2
loop_
 _symmetry_equiv_pos_site_id
 _symmetry_equiv_pos_as_xyz
  1  'x, y, z'
loop_
 _atom_site_type_symbol
 _atom_site_label
 _atom_site_symmetry_multiplicity
 _atom_site_fract_x
 _atom_site_fract_y
 _atom_site_fract_z
 _atom_site_occupancy
  Yb  Yb0  1  0.50000000  0.04148152  0.91025602  1
  Yb  Yb1  1  0.50000000  0.54148152  0.58974398  1
  Yb  Yb2  1  0.50000000  0.95851848  0.08974398  1
  Yb  Yb3  1  0.50000000  0.23091237  0.74433893  1
  Yb  Yb4  1  0.50000000  0.45851848  0.41025602  1
  Yb  Yb5  1  0.50000000  0.50000000  0.00000000  1
  Yb  Yb6  1  0.50000000  0.26908763  0.24433893  1
  Yb  Yb7  1  0.50000000  0.76908763  0.25566107  1
  Yb  Yb8  1  0.50000000  0.73091237  0.75566107  1
  Yb  Yb9  1  0.50000000  0.00000000  0.50000000  1
  In  In10  1  0.00000000  0.32309539  0.12010746  1
  In  In11  1  0.00000000  0.67690461  0.87989254  1
  In  In12  1  0.00000000  0.82309539  0.37989254  1
  In  In13  1  0.00000000  0.17690461  0.62010746  1
  Sb  Sb14  1  0.00000000  0.69729890  0.50126265  1
  Sb  Sb15  1  0.50000000  0.04882289  0.36300136  1
  Sb  Sb16  1  0.00000000  0.00463564  0.18981840  1
  Sb  Sb17  1  0.00000000  0.50463564  0.31018160  1
  Sb  Sb18  1  0.00000000  0.99536436  0.81018160  1
  Sb  Sb19  1  0.00000000  0.49536436  0.68981840  1
  Sb  Sb20  1  0.50000000  0.45117711  0.86300136  1
  Sb  Sb21  1  0.00000000  0.19729890  0.99873735  1
  Sb  Sb22  1  0.50000000  0.54882289  0.13699864  1
  Sb  Sb23  1  0.00000000  0.30270110  0.49873735  1
  Sb  Sb24  1  0.00000000  0.80270110  0.00126265  1
  Sb  Sb25  1  0.50000000  0.95117711  0.63699864  1
