# generated using pymatgen
data_Rb3Tm2Cu4Br13
_symmetry_space_group_name_H-M   'P 1'
_cell_length_a   11.10350607
_cell_length_b   11.10350607
_cell_length_c   11.10350607
_cell_angle_alpha   90.00000000
_cell_angle_beta   90.00000000
_cell_angle_gamma   90.00000000
_symmetry_Int_Tables_number   1
_chemical_formula_structural   Rb3Tm2Cu4Br13
_chemical_formula_sum   'Rb6 Tm4 Cu8 Br26'
_cell_volume   1368.92735804
_cell_formula_units_Z   2
loop_
 _symmetry_equiv_pos_site_id
 _symmetry_equiv_pos_as_xyz
  1  'x, y, z'
loop_
 _atom_site_type_symbol
 _atom_site_label
 _atom_site_symmetry_multiplicity
 _atom_site_fract_x
 _atom_site_fract_y
 _atom_site_fract_z
 _atom_site_occupancy
  Rb  Rb0  1  0.25000000  0.75000000  0.25000000  1
  Rb  Rb1  1  0.25000000  0.25000000  0.75000000  1
  Rb  Rb2  1  0.25000000  0.75000000  0.75000000  1
  Rb  Rb3  1  0.75000000  0.25000000  0.75000000  1
  Rb  Rb4  1  0.75000000  0.75000000  0.25000000  1
  Rb  Rb5  1  0.75000000  0.25000000  0.25000000  1
  Tm  Tm6  1  0.50000000  0.00000000  0.50000000  1
  Tm  Tm7  1  0.00000000  0.50000000  0.50000000  1
  Tm  Tm8  1  0.50000000  0.50000000  0.00000000  1
  Tm  Tm9  1  0.00000000  0.00000000  0.00000000  1
  Cu  Cu10  1  0.37787987  0.37787987  0.37787987  1
  Cu  Cu11  1  0.62212013  0.87787987  0.87787987  1
  Cu  Cu12  1  0.12212013  0.37787987  0.12212013  1
  Cu  Cu13  1  0.87787987  0.62212013  0.87787987  1
  Cu  Cu14  1  0.37787987  0.12212013  0.12212013  1
  Cu  Cu15  1  0.62212013  0.62212013  0.62212013  1
  Cu  Cu16  1  0.87787987  0.87787987  0.62212013  1
  Cu  Cu17  1  0.12212013  0.12212013  0.37787987  1
  Br  Br18  1  0.47453185  0.98523903  0.74873038  1
  Br  Br19  1  0.24873038  0.52546815  0.48523903  1
  Br  Br20  1  0.75126962  0.47453185  0.51476097  1
  Br  Br21  1  0.48523903  0.24873038  0.52546815  1
  Br  Br22  1  0.48523903  0.25126962  0.97453185  1
  Br  Br23  1  0.01476097  0.24873038  0.97453185  1
  Br  Br24  1  0.25000000  0.25000000  0.25000000  1
  Br  Br25  1  0.25126962  0.52546815  0.01476097  1
  Br  Br26  1  0.74873038  0.47453185  0.98523903  1
  Br  Br27  1  0.24873038  0.97453185  0.01476097  1
  Br  Br28  1  0.51476097  0.75126962  0.47453185  1
  Br  Br29  1  0.75126962  0.02546815  0.98523903  1
  Br  Br30  1  0.74873038  0.02546815  0.51476097  1
  Br  Br31  1  0.01476097  0.25126962  0.52546815  1
  Br  Br32  1  0.02546815  0.98523903  0.75126962  1
  Br  Br33  1  0.25126962  0.97453185  0.48523903  1
  Br  Br34  1  0.97453185  0.01476097  0.24873038  1
  Br  Br35  1  0.51476097  0.74873038  0.02546815  1
  Br  Br36  1  0.52546815  0.01476097  0.25126962  1
  Br  Br37  1  0.47453185  0.51476097  0.75126962  1
  Br  Br38  1  0.75000000  0.75000000  0.75000000  1
  Br  Br39  1  0.98523903  0.75126962  0.02546815  1
  Br  Br40  1  0.98523903  0.74873038  0.47453185  1
  Br  Br41  1  0.02546815  0.51476097  0.74873038  1
  Br  Br42  1  0.97453185  0.48523903  0.25126962  1
  Br  Br43  1  0.52546815  0.48523903  0.24873038  1
