# generated using pymatgen
data_Cs2NbAgS4
_symmetry_space_group_name_H-M   'P 1'
_cell_length_a   5.99617927
_cell_length_b   7.85136122
_cell_length_c   12.94237338
_cell_angle_alpha   84.92517345
_cell_angle_beta   76.60582052
_cell_angle_gamma   67.55130205
_symmetry_Int_Tables_number   1
_chemical_formula_structural   Cs2NbAgS4
_chemical_formula_sum   'Cs4 Nb2 Ag2 S8'
_cell_volume   547.81384891
_cell_formula_units_Z   2
loop_
 _symmetry_equiv_pos_site_id
 _symmetry_equiv_pos_as_xyz
  1  'x, y, z'
loop_
 _atom_site_type_symbol
 _atom_site_label
 _atom_site_symmetry_multiplicity
 _atom_site_fract_x
 _atom_site_fract_y
 _atom_site_fract_z
 _atom_site_occupancy
  Cs  Cs0  1  0.80356381  0.75000000  0.39287237  1
  Cs  Cs1  1  0.44643619  0.75000000  0.10712763  1
  Cs  Cs2  1  0.19643619  0.25000000  0.60712763  1
  Cs  Cs3  1  0.55356381  0.25000000  0.89287237  1
  Nb  Nb4  1  0.37500000  0.25000000  0.25000000  1
  Nb  Nb5  1  0.62500000  0.75000000  0.75000000  1
  Ag  Ag6  1  0.12500000  0.75000000  0.75000000  1
  Ag  Ag7  1  0.87500000  0.25000000  0.25000000  1
  S  S8  1  0.88147218  0.56100169  0.85671739  1
  S  S9  1  0.20080874  0.06100169  0.35671739  1
  S  S10  1  0.73818957  0.06100169  0.14328261  1
  S  S11  1  0.44247387  0.43899831  0.35671739  1
  S  S12  1  0.55752613  0.56100169  0.64328261  1
  S  S13  1  0.26181043  0.93899831  0.85671739  1
  S  S14  1  0.11852782  0.43899831  0.14328261  1
  S  S15  1  0.79919126  0.93899831  0.64328261  1
