# generated using pymatgen
data_Sr2FeClO3
_symmetry_space_group_name_H-M   'P 1'
_cell_length_a   3.98695340
_cell_length_b   3.98690755
_cell_length_c   14.47780863
_cell_angle_alpha   90.00013156
_cell_angle_beta   90.00011093
_cell_angle_gamma   89.99965050
_symmetry_Int_Tables_number   1
_chemical_formula_structural   Sr2FeClO3
_chemical_formula_sum   'Sr4 Fe2 Cl2 O6'
_cell_volume   230.13366641
_cell_formula_units_Z   2
loop_
 _symmetry_equiv_pos_site_id
 _symmetry_equiv_pos_as_xyz
  1  'x, y, z'
loop_
 _atom_site_type_symbol
 _atom_site_label
 _atom_site_symmetry_multiplicity
 _atom_site_fract_x
 _atom_site_fract_y
 _atom_site_fract_z
 _atom_site_occupancy
  Sr  Sr0  1  0.24999473  0.24999965  0.34426180  1
  Sr  Sr1  1  0.24999825  0.24999774  0.09621189  1
  Sr  Sr2  1  0.74999873  0.75000284  0.90377950  1
  Sr  Sr3  1  0.75000289  0.75000658  0.65574135  1
  Fe  Fe4  1  0.75000137  0.74999943  0.20766582  1
  Fe  Fe5  1  0.24999758  0.25000056  0.79233425  1
  Cl  Cl6  1  0.74999993  0.75000151  0.42494718  1
  Cl  Cl7  1  0.25000286  0.25000157  0.57506100  1
  O  O8  1  0.25000198  0.74999731  0.23097804  1
  O  O9  1  0.25000278  0.24999512  0.92530084  1
  O  O10  1  0.24999986  0.74999978  0.76901714  1
  O  O11  1  0.75000170  0.24999661  0.23098132  1
  O  O12  1  0.74999990  0.25000304  0.76902419  1
  O  O13  1  0.74999744  0.74999825  0.07469569  1
