# generated using pymatgen
data_Li4Si4Bi2O13
_symmetry_space_group_name_H-M   'P 1'
_cell_length_a   10.26288156
_cell_length_b   9.12309083
_cell_length_c   7.10095412
_cell_angle_alpha   79.25103746
_cell_angle_beta   90.48116793
_cell_angle_gamma   112.85657785
_symmetry_Int_Tables_number   1
_chemical_formula_structural   Li4Si4Bi2O13
_chemical_formula_sum   'Li8 Si8 Bi4 O26'
_cell_volume   600.39431699
_cell_formula_units_Z   2
loop_
 _symmetry_equiv_pos_site_id
 _symmetry_equiv_pos_as_xyz
  1  'x, y, z'
loop_
 _atom_site_type_symbol
 _atom_site_label
 _atom_site_symmetry_multiplicity
 _atom_site_fract_x
 _atom_site_fract_y
 _atom_site_fract_z
 _atom_site_occupancy
  Li  Li0  1  0.01897944  0.82969729  0.80793909  1
  Li  Li1  1  0.02233190  0.87431436  0.43431244  1
  Li  Li2  1  0.40098335  0.88616029  0.44338450  1
  Li  Li3  1  0.42272176  0.92053941  0.85815360  1
  Li  Li4  1  0.57727824  0.07946059  0.14184640  1
  Li  Li5  1  0.59901665  0.11383971  0.55661550  1
  Li  Li6  1  0.97766810  0.12568564  0.56568756  1
  Li  Li7  1  0.98102056  0.17030271  0.19206091  1
  Si  Si8  1  0.18497765  0.65040760  0.71052528  1
  Si  Si9  1  0.28359720  0.33168375  0.30547474  1
  Si  Si10  1  0.27923560  0.10382350  0.64659894  1
  Si  Si11  1  0.26113823  0.03105309  0.10157756  1
  Si  Si12  1  0.73886177  0.96894691  0.89842244  1
  Si  Si13  1  0.72076440  0.89617650  0.35340106  1
  Si  Si14  1  0.71640280  0.66831625  0.69452526  1
  Si  Si15  1  0.81502235  0.34959240  0.28947472  1
  Bi  Bi16  1  0.13174013  0.65889684  0.20211032  1
  Bi  Bi17  1  0.35159214  0.44115328  0.83442872  1
  Bi  Bi18  1  0.64840786  0.55884672  0.16557128  1
  Bi  Bi19  1  0.86825987  0.34110316  0.79788968  1
  O  O20  1  0.09922053  0.89301523  0.15232441  1
  O  O21  1  0.10506884  0.44882087  0.78475125  1
  O  O22  1  0.14630432  0.71809259  0.49936475  1
  O  O23  1  0.15848783  0.74265867  0.87247475  1
  O  O24  1  0.13295843  0.34288883  0.28645460  1
  O  O25  1  0.11553332  0.01804999  0.60749502  1
  O  O26  1  0.37184223  0.94302571  0.14092609  1
  O  O27  1  0.39296053  0.03152069  0.60761675  1
  O  O28  1  0.35753430  0.67951008  0.70433461  1
  O  O29  1  0.41012933  0.49347598  0.16708770  1
  O  O30  1  0.28870791  0.13443024  0.87502020  1
  O  O31  1  0.33412293  0.30650274  0.53218495  1
  O  O32  1  0.28981590  0.17738488  0.22046233  1
  O  O33  1  0.71018410  0.82261512  0.77953767  1
  O  O34  1  0.66587707  0.69349726  0.46781505  1
  O  O35  1  0.71129209  0.86556976  0.12497980  1
  O  O36  1  0.58987067  0.50652402  0.83291230  1
  O  O37  1  0.64246570  0.32048992  0.29566539  1
  O  O38  1  0.60703947  0.96847931  0.39238325  1
  O  O39  1  0.62815777  0.05697429  0.85907391  1
  O  O40  1  0.88446668  0.98195001  0.39250498  1
  O  O41  1  0.86704157  0.65711117  0.71354540  1
  O  O42  1  0.84151217  0.25734133  0.12752525  1
  O  O43  1  0.85369568  0.28190741  0.50063525  1
  O  O44  1  0.89493116  0.55117913  0.21524875  1
  O  O45  1  0.90077947  0.10698577  0.84767559  1
