# generated using pymatgen
data_Te3Pd13
_symmetry_space_group_name_H-M   'P 1'
_cell_length_a   9.11963718
_cell_length_b   9.11964234
_cell_length_c   9.11964914
_cell_angle_alpha   59.99995767
_cell_angle_beta   60.00001447
_cell_angle_gamma   60.00000255
_symmetry_Int_Tables_number   1
_chemical_formula_structural   Te3Pd13
_chemical_formula_sum   'Te6 Pd26'
_cell_volume   536.31311277
_cell_formula_units_Z   2
loop_
 _symmetry_equiv_pos_site_id
 _symmetry_equiv_pos_as_xyz
  1  'x, y, z'
loop_
 _atom_site_type_symbol
 _atom_site_label
 _atom_site_symmetry_multiplicity
 _atom_site_fract_x
 _atom_site_fract_y
 _atom_site_fract_z
 _atom_site_occupancy
  Te  Te0  1  0.87499949  0.87500133  0.87499923  1
  Te  Te1  1  0.49999994  0.50000023  0.99999989  1
  Te  Te2  1  0.49999979  0.50000007  0.50000030  1
  Te  Te3  1  0.50000000  0.00000007  0.50000022  1
  Te  Te4  1  0.00000003  0.50000032  0.50000006  1
  Te  Te5  1  0.12500097  0.12499863  0.12500044  1
  Pd  Pd6  1  0.75971380  0.75970997  0.75971067  1
  Pd  Pd7  1  0.37500191  0.37499969  0.37499840  1
  Pd  Pd8  1  0.13695492  0.61304444  0.13695584  1
  Pd  Pd9  1  0.75971015  0.22086518  0.75971269  1
  Pd  Pd10  1  -0.00000018  -0.00000091  0.00000015  1
  Pd  Pd11  1  0.77913383  0.24029068  0.24028695  1
  Pd  Pd12  1  0.61304668  0.13695460  0.13695587  1
  Pd  Pd13  1  0.75971143  0.75970943  0.22086516  1
  Pd  Pd14  1  0.61304515  0.13695695  0.61304322  1
  Pd  Pd15  1  0.86304537  0.38695566  0.86304404  1
  Pd  Pd16  1  0.13695563  0.61304435  0.61304486  1
  Pd  Pd17  1  0.24028801  0.24028944  0.24029048  1
  Pd  Pd18  1  0.24028840  0.77913359  0.24028956  1
  Pd  Pd19  1  0.61304550  0.61304601  0.13695412  1
  Pd  Pd20  1  0.99999938  0.00000097  0.49999987  1
  Pd  Pd21  1  0.86304396  0.86304574  0.38695620  1
  Pd  Pd22  1  0.62500078  0.62499889  0.62500063  1
  Pd  Pd23  1  0.38695511  0.86304363  0.38695632  1
  Pd  Pd24  1  0.86304578  0.38695544  0.38695361  1
  Pd  Pd25  1  0.00000031  0.49999973  0.99999954  1
  Pd  Pd26  1  0.38695379  0.38695576  0.86304457  1
  Pd  Pd27  1  0.38695292  0.86304376  0.86304522  1
  Pd  Pd28  1  0.24028606  0.24029063  0.77913508  1
  Pd  Pd29  1  0.22086651  0.75970943  0.75971188  1
  Pd  Pd30  1  0.13695508  0.13695593  0.61304462  1
  Pd  Pd31  1  0.49999947  0.00000036  0.00000030  1
