# generated using pymatgen
data_HF
_symmetry_space_group_name_H-M   'P 1'
_cell_length_a   2.78685909
_cell_length_b   2.78685909
_cell_length_c   5.18095999
_cell_angle_alpha   90.00000000
_cell_angle_beta   90.00000000
_cell_angle_gamma   73.56794772
_symmetry_Int_Tables_number   1
_chemical_formula_structural   HF
_chemical_formula_sum   'H2 F2'
_cell_volume   38.59485848
_cell_formula_units_Z   2
loop_
 _symmetry_equiv_pos_site_id
 _symmetry_equiv_pos_as_xyz
  1  'x, y, z'
loop_
 _atom_site_type_symbol
 _atom_site_label
 _atom_site_symmetry_multiplicity
 _atom_site_fract_x
 _atom_site_fract_y
 _atom_site_fract_z
 _atom_site_occupancy
  H  H0  1  0.55223114  0.55223114  0.54423648  1
  H  H1  1  0.44776886  0.44776886  0.04423648  1
  F  F2  1  0.74691411  0.74691411  0.61776352  1
  F  F3  1  0.25308589  0.25308589  0.11776352  1
