# generated using pymatgen
data_La(CuSn)2
_symmetry_space_group_name_H-M   'P 1'
_cell_length_a   4.54087588
_cell_length_b   4.54086595
_cell_length_c   10.55881734
_cell_angle_alpha   89.99988041
_cell_angle_beta   90.00022879
_cell_angle_gamma   90.00002246
_symmetry_Int_Tables_number   1
_chemical_formula_structural   La(CuSn)2
_chemical_formula_sum   'La2 Cu4 Sn4'
_cell_volume   217.71762565
_cell_formula_units_Z   2
loop_
 _symmetry_equiv_pos_site_id
 _symmetry_equiv_pos_as_xyz
  1  'x, y, z'
loop_
 _atom_site_type_symbol
 _atom_site_label
 _atom_site_symmetry_multiplicity
 _atom_site_fract_x
 _atom_site_fract_y
 _atom_site_fract_z
 _atom_site_occupancy
  La  La0  1  0.74999632  0.74999948  0.76061198  1
  La  La1  1  0.25000343  0.25000033  0.23938053  1
  Cu  Cu2  1  0.24999932  0.24999816  0.63320914  1
  Cu  Cu3  1  0.75000137  0.75000027  0.36681641  1
  Cu  Cu4  1  0.24999946  0.74999977  0.99999632  1
  Cu  Cu5  1  0.75000042  0.25000139  0.99999679  1
  Sn  Sn6  1  0.74999924  0.25000015  0.49999811  1
  Sn  Sn7  1  0.24999888  0.24999964  0.87470688  1
  Sn  Sn8  1  0.75000037  0.75000077  0.12528541  1
  Sn  Sn9  1  0.25000120  0.75000004  0.49999843  1
