# generated using pymatgen
data_Yb2Pt2Pb
_symmetry_space_group_name_H-M   'P 1'
_cell_length_a   7.52375496
_cell_length_b   7.72466471
_cell_length_c   7.72476660
_cell_angle_alpha   89.99143765
_cell_angle_beta   90.00063824
_cell_angle_gamma   90.00149404
_symmetry_Int_Tables_number   1
_chemical_formula_structural   Yb2Pt2Pb
_chemical_formula_sum   'Yb8 Pt8 Pb4'
_cell_volume   448.95172242
_cell_formula_units_Z   4
loop_
 _symmetry_equiv_pos_site_id
 _symmetry_equiv_pos_as_xyz
  1  'x, y, z'
loop_
 _atom_site_type_symbol
 _atom_site_label
 _atom_site_symmetry_multiplicity
 _atom_site_fract_x
 _atom_site_fract_y
 _atom_site_fract_z
 _atom_site_occupancy
  Yb  Yb0  1  0.00000460  0.17469798  0.17469731  1
  Yb  Yb1  1  0.49999318  0.84331905  0.84331872  1
  Yb  Yb2  1  0.49999386  0.67469784  0.32530227  1
  Yb  Yb3  1  0.49999514  0.15668073  0.15667983  1
  Yb  Yb4  1  0.00000732  0.82530200  0.82530168  1
  Yb  Yb5  1  0.49999426  0.32530244  0.67469754  1
  Yb  Yb6  1  0.00000346  0.65668159  0.34331797  1
  Yb  Yb7  1  0.00000330  0.34331809  0.65668124  1
  Pt  Pt8  1  0.73286623  0.36860666  0.36860675  1
  Pt  Pt9  1  0.73286614  0.63139004  0.63139366  1
  Pt  Pt10  1  0.76713448  0.86861393  0.13138439  1
  Pt  Pt11  1  0.23286094  0.86860707  0.13139371  1
  Pt  Pt12  1  0.23286123  0.13139366  0.86860589  1
  Pt  Pt13  1  0.26713366  0.63139265  0.63139241  1
  Pt  Pt14  1  0.26713735  0.36861068  0.36860946  1
  Pt  Pt15  1  0.76713470  0.13138419  0.86861361  1
  Pb  Pb16  1  0.75000257  0.50000826  0.99997365  1
  Pb  Pb17  1  0.25000067  0.49999278  0.00003289  1
  Pb  Pb18  1  0.75000306  0.99996257  0.49999562  1
  Pb  Pb19  1  0.25000386  0.00003778  0.50000139  1
