# generated using pymatgen
data_In3Ir
_symmetry_space_group_name_H-M   'P 1'
_cell_length_a   7.11689661
_cell_length_b   7.11689396
_cell_length_c   7.32173720
_cell_angle_alpha   90.00009588
_cell_angle_beta   90.00003083
_cell_angle_gamma   90.00005780
_symmetry_Int_Tables_number   1
_chemical_formula_structural   In3Ir
_chemical_formula_sum   'In12 Ir4'
_cell_volume   370.84744253
_cell_formula_units_Z   4
loop_
 _symmetry_equiv_pos_site_id
 _symmetry_equiv_pos_as_xyz
  1  'x, y, z'
loop_
 _atom_site_type_symbol
 _atom_site_label
 _atom_site_symmetry_multiplicity
 _atom_site_fract_x
 _atom_site_fract_y
 _atom_site_fract_z
 _atom_site_occupancy
  In  In0  1  0.84826185  0.84826193  0.25568303  1
  In  In1  1  0.65173906  0.34826112  0.75568159  1
  In  In2  1  0.65173914  0.34826081  0.24431871  1
  In  In3  1  0.49999991  -0.00000058  0.00000068  1
  In  In4  1  0.34826061  0.65173959  0.24431755  1
  In  In5  1  0.34826076  0.65173955  0.75568164  1
  In  In6  1  0.00000042  0.50000028  0.00000010  1
  In  In7  1  0.15173828  0.15173783  0.25568363  1
  In  In8  1  0.15173732  0.15173797  0.74431701  1
  In  In9  1  0.50000021  0.99999926  0.49999979  1
  In  In10  1  0.84826183  0.84826261  0.74431653  1
  In  In11  1  -0.00000009  0.50000023  0.49999917  1
  Ir  Ir12  1  0.65507077  0.65507079  0.00000012  1
  Ir  Ir13  1  0.15507136  0.84492887  0.49999996  1
  Ir  Ir14  1  0.84492962  0.15507050  0.50000028  1
  Ir  Ir15  1  0.34492893  0.34492926  0.00000019  1
