# generated using pymatgen
data_La3Ga4Cl
_symmetry_space_group_name_H-M   'P 1'
_cell_length_a   8.18414992
_cell_length_b   8.18414980
_cell_length_c   8.18415051
_cell_angle_alpha   91.12651407
_cell_angle_beta   119.35175036
_cell_angle_gamma   119.35175269
_symmetry_Int_Tables_number   1
_chemical_formula_structural   La3Ga4Cl
_chemical_formula_sum   'La6 Ga8 Cl2'
_cell_volume   391.33575626
_cell_formula_units_Z   2
loop_
 _symmetry_equiv_pos_site_id
 _symmetry_equiv_pos_as_xyz
  1  'x, y, z'
loop_
 _atom_site_type_symbol
 _atom_site_label
 _atom_site_symmetry_multiplicity
 _atom_site_fract_x
 _atom_site_fract_y
 _atom_site_fract_z
 _atom_site_occupancy
  La  La0  1  0.82194713  0.16097356  0.66097356  1
  La  La1  1  0.50000000  0.66097356  0.83902644  1
  La  La2  1  0.50000000  0.33902644  0.16097356  1
  La  La3  1  0.00000000  0.25000000  0.25000000  1
  La  La4  1  0.17805287  0.83902644  0.33902644  1
  La  La5  1  0.00000000  0.75000000  0.75000000  1
  Ga  Ga6  1  0.78629910  0.44389991  0.94389991  1
  Ga  Ga7  1  0.50000000  0.34239919  0.55610009  1
  Ga  Ga8  1  0.78629910  0.84239919  0.34239919  1
  Ga  Ga9  1  0.50000000  0.94389991  0.15760081  1
  Ga  Ga10  1  0.50000000  0.05610009  0.84239919  1
  Ga  Ga11  1  0.21370090  0.55610009  0.05610009  1
  Ga  Ga12  1  0.50000000  0.65760081  0.44389991  1
  Ga  Ga13  1  0.21370090  0.15760081  0.65760081  1
  Cl  Cl14  1  0.00000000  0.00000000  0.00000000  1
  Cl  Cl15  1  0.00000000  0.50000000  0.50000000  1
