# generated using pymatgen
data_KV(CuS2)2
_symmetry_space_group_name_H-M   'P 1'
_cell_length_a   5.40475252
_cell_length_b   7.43462522
_cell_length_c   9.41910197
_cell_angle_alpha   90.00000000
_cell_angle_beta   106.67268224
_cell_angle_gamma   90.00000000
_symmetry_Int_Tables_number   1
_chemical_formula_structural   KV(CuS2)2
_chemical_formula_sum   'K2 V2 Cu4 S8'
_cell_volume   362.56968823
_cell_formula_units_Z   2
loop_
 _symmetry_equiv_pos_site_id
 _symmetry_equiv_pos_as_xyz
  1  'x, y, z'
loop_
 _atom_site_type_symbol
 _atom_site_label
 _atom_site_symmetry_multiplicity
 _atom_site_fract_x
 _atom_site_fract_y
 _atom_site_fract_z
 _atom_site_occupancy
  S  S0  1  0.32116242  0.49166363  0.21803535  1
  S  S1  1  0.10312707  0.50833637  0.78196465  1
  S  S2  1  0.53633590  0.75000000  0.58678357  1
  S  S3  1  0.94955234  0.25000000  0.41321643  1
  S  S4  1  0.73566149  0.75000000  0.98512571  1
  S  S5  1  0.75053579  0.25000000  0.01487429  1
  S  S6  1  0.32116242  0.00833637  0.21803535  1
  S  S7  1  0.10312707  0.99166363  0.78196465  1
  K  K8  1  0.91796141  0.75000000  0.36430922  1
  K  K9  1  0.55365220  0.25000000  0.63569078  1
  V  V10  1  0.86847283  0.75000000  0.78139830  1
  V  V11  1  0.08707453  0.25000000  0.21860170  1
  Cu  Cu12  1  0.99448520  0.50000000  0.00000000  1
  Cu  Cu13  1  0.99448520  0.00000000  0.00000000  1
  Cu  Cu14  1  0.36963871  0.75000000  0.78463330  1
  Cu  Cu15  1  0.58500541  0.25000000  0.21536670  1
