# generated using pymatgen
data_U4Ga12Pd
_symmetry_space_group_name_H-M   'P 1'
_cell_length_a   7.48377041
_cell_length_b   7.48417221
_cell_length_c   7.48316756
_cell_angle_alpha   109.46347650
_cell_angle_beta   109.48040263
_cell_angle_gamma   109.46712465
_symmetry_Int_Tables_number   1
_chemical_formula_structural   U4Ga12Pd
_chemical_formula_sum   'U4 Ga12 Pd1'
_cell_volume   322.65770858
_cell_formula_units_Z   1
loop_
 _symmetry_equiv_pos_site_id
 _symmetry_equiv_pos_as_xyz
  1  'x, y, z'
loop_
 _atom_site_type_symbol
 _atom_site_label
 _atom_site_symmetry_multiplicity
 _atom_site_fract_x
 _atom_site_fract_y
 _atom_site_fract_z
 _atom_site_occupancy
  U  U0  1  0.99999930  0.99999838  0.49999830  1
  U  U1  1  0.00000153  0.50000092  0.00000278  1
  U  U2  1  0.50000100  0.50000045  0.50000009  1
  U  U3  1  0.49999980  0.99999927  0.00000030  1
  Ga  Ga4  1  0.75000160  0.24999045  0.49999080  1
  Ga  Ga5  1  0.70599731  0.00000878  0.70599902  1
  Ga  Ga6  1  0.99998156  0.29398579  0.29399398  1
  Ga  Ga7  1  0.24999810  0.50000563  0.75000678  1
  Ga  Ga8  1  0.50000357  0.75001043  0.24999300  1
  Ga  Ga9  1  0.24999766  0.75001018  0.50000842  1
  Ga  Ga10  1  0.49999624  0.24999006  0.75000652  1
  Ga  Ga11  1  0.70600201  0.70601224  0.00001680  1
  Ga  Ga12  1  0.75000221  0.49999429  0.24999328  1
  Ga  Ga13  1  0.29400276  0.99999091  0.29400106  1
  Ga  Ga14  1  0.29399740  0.29398806  0.99998253  1
  Ga  Ga15  1  0.00001807  0.70601385  0.70600623  1
  Pd  Pd16  1  -0.00000011  0.00000030  0.00000011  1
