# generated using pymatgen
data_U6Fe16Si7C
_symmetry_space_group_name_H-M   'P 1'
_cell_length_a   8.18249816
_cell_length_b   8.18159895
_cell_length_c   8.18233981
_cell_angle_alpha   60.00115497
_cell_angle_beta   60.00531968
_cell_angle_gamma   60.00341936
_symmetry_Int_Tables_number   1
_chemical_formula_structural   U6Fe16Si7C
_chemical_formula_sum   'U6 Fe16 Si7 C1'
_cell_volume   387.36384960
_cell_formula_units_Z   1
loop_
 _symmetry_equiv_pos_site_id
 _symmetry_equiv_pos_as_xyz
  1  'x, y, z'
loop_
 _atom_site_type_symbol
 _atom_site_label
 _atom_site_symmetry_multiplicity
 _atom_site_fract_x
 _atom_site_fract_y
 _atom_site_fract_z
 _atom_site_occupancy
  U  U0  1  0.71394463  0.28598052  0.71396389  1
  U  U1  1  0.71393193  0.28598722  0.28610113  1
  U  U2  1  0.28604973  0.71391497  0.28602923  1
  U  U3  1  0.71396835  0.71394323  0.28603874  1
  U  U4  1  0.28611978  0.28596391  0.71393661  1
  U  U5  1  0.28605424  0.71393547  0.71397779  1
  Fe  Fe6  1  0.36752678  0.87746518  0.87749043  1
  Fe  Fe7  1  0.32514708  0.32509683  0.32509726  1
  Fe  Fe8  1  0.32512000  0.32512693  0.02460821  1
  Fe  Fe9  1  0.67480911  0.67485775  0.97534157  1
  Fe  Fe10  1  0.02456281  0.32506340  0.32514019  1
  Fe  Fe11  1  0.32503219  0.02468000  0.32512735  1
  Fe  Fe12  1  0.67489028  0.97525233  0.67487633  1
  Fe  Fe13  1  0.12244928  0.12250327  0.63251276  1
  Fe  Fe14  1  0.97542213  0.67488461  0.67482672  1
  Fe  Fe15  1  0.12245479  0.12250831  0.12249476  1
  Fe  Fe16  1  0.87750522  0.87747244  0.36750128  1
  Fe  Fe17  1  0.63248871  0.12250757  0.12247574  1
  Fe  Fe18  1  0.12243222  0.63257770  0.12247291  1
  Fe  Fe19  1  0.67482044  0.67493175  0.67496251  1
  Fe  Fe20  1  0.87753904  0.87751401  0.87751959  1
  Fe  Fe21  1  0.87751121  0.36743078  0.87751009  1
  Si  Si22  1  0.00001212  0.50009305  -0.00001685  1
  Si  Si23  1  0.00000716  0.00001327  0.00000032  1
  Si  Si24  1  0.50008377  0.00001361  0.99990382  1
  Si  Si25  1  0.50008119  0.00002367  0.50007165  1
  Si  Si26  1  0.99994842  0.00003171  0.50004527  1
  Si  Si27  1  0.00003238  0.50007253  0.49998944  1
  Si  Si28  1  0.50001567  0.50009397  -0.00000653  1
  C  C29  1  0.50003934  0.50006003  0.50000781  1
