# generated using pymatgen
data_Pu2Ni2Sn
_symmetry_space_group_name_H-M   'P 1'
_cell_length_a   3.90253345
_cell_length_b   7.11563359
_cell_length_c   7.11563359
_cell_angle_alpha   90.00000000
_cell_angle_beta   90.00000000
_cell_angle_gamma   90.00000000
_symmetry_Int_Tables_number   1
_chemical_formula_structural   Pu2Ni2Sn
_chemical_formula_sum   'Pu4 Ni4 Sn2'
_cell_volume   197.59401566
_cell_formula_units_Z   2
loop_
 _symmetry_equiv_pos_site_id
 _symmetry_equiv_pos_as_xyz
  1  'x, y, z'
loop_
 _atom_site_type_symbol
 _atom_site_label
 _atom_site_symmetry_multiplicity
 _atom_site_fract_x
 _atom_site_fract_y
 _atom_site_fract_z
 _atom_site_occupancy
  Pu  Pu0  1  0.50000000  0.32525251  0.17474749  1
  Pu  Pu1  1  0.50000000  0.17474749  0.67474749  1
  Pu  Pu2  1  0.50000000  0.67474749  0.82525251  1
  Pu  Pu3  1  0.50000000  0.82525251  0.32525251  1
  Ni  Ni4  1  0.00000000  0.62325338  0.12325338  1
  Ni  Ni5  1  0.00000000  0.87674662  0.62325338  1
  Ni  Ni6  1  0.00000000  0.12325338  0.37674662  1
  Ni  Ni7  1  0.00000000  0.37674662  0.87674662  1
  Sn  Sn8  1  0.00000000  0.00000000  0.00000000  1
  Sn  Sn9  1  0.00000000  0.50000000  0.50000000  1
