# generated using pymatgen
data_LiTi(PO3)4
_symmetry_space_group_name_H-M   'P 1'
_cell_length_a   7.50601122
_cell_length_b   8.61982736
_cell_length_c   14.53212253
_cell_angle_alpha   90.01478037
_cell_angle_beta   95.56433605
_cell_angle_gamma   90.01130943
_symmetry_Int_Tables_number   1
_chemical_formula_structural   LiTi(PO3)4
_chemical_formula_sum   'Li4 Ti4 P16 O48'
_cell_volume   935.80540222
_cell_formula_units_Z   4
loop_
 _symmetry_equiv_pos_site_id
 _symmetry_equiv_pos_as_xyz
  1  'x, y, z'
loop_
 _atom_site_type_symbol
 _atom_site_label
 _atom_site_symmetry_multiplicity
 _atom_site_fract_x
 _atom_site_fract_y
 _atom_site_fract_z
 _atom_site_occupancy
  Li  Li0  1  0.06147267  0.58308597  0.92675471  1
  Li  Li1  1  0.43852616  0.08307615  0.57324646  1
  Li  Li2  1  0.56147384  0.91692385  0.42675354  1
  Li  Li3  1  0.93852733  0.41691403  0.07324529  1
  Ti  Ti4  1  0.04069591  0.65839043  0.35235968  1
  Ti  Ti5  1  0.54073958  0.84173971  0.85233292  1
  Ti  Ti6  1  0.45926042  0.15826029  0.14766708  1
  Ti  Ti7  1  0.95930409  0.34160957  0.64764032  1
  P  P8  1  0.06327578  0.27660747  0.43097194  1
  P  P9  1  0.13836306  0.04793838  0.78353959  1
  P  P10  1  0.18529133  0.23195463  0.95486369  1
  P  P11  1  0.20398938  0.03183601  0.30947068  1
  P  P12  1  0.31472108  0.73200359  0.54515685  1
  P  P13  1  0.36169506  0.54795087  0.71645992  1
  P  P14  1  0.29604017  0.53177059  0.19050790  1
  P  P15  1  0.56327638  0.22337797  0.93097441  1
  P  P16  1  0.43672362  0.77662203  0.06902559  1
  P  P17  1  0.70395983  0.46822941  0.80949210  1
  P  P18  1  0.63830494  0.45204913  0.28354008  1
  P  P19  1  0.68527892  0.26799641  0.45484315  1
  P  P20  1  0.79601062  0.96816399  0.69052932  1
  P  P21  1  0.81470867  0.76804537  0.04513631  1
  P  P22  1  0.86163694  0.95206162  0.21646041  1
  P  P23  1  0.93672422  0.72339253  0.56902806  1
  O  O24  1  0.07147320  0.37282236  0.96552909  1
  O  O25  1  0.07989523  0.12459325  0.87745977  1
  O  O26  1  0.03071671  0.06804608  0.23794584  1
  O  O27  1  0.10203267  0.28705525  0.53481490  1
  O  O28  1  0.13601102  0.16481910  0.70656799  1
  O  O29  1  0.14082955  0.78491308  0.59414738  1
  O  O30  1  0.10073273  0.41109757  0.37132051  1
  O  O31  1  0.19630428  0.45464654  0.69676969  1
  O  O32  1  0.16558771  0.12363927  0.40249643  1
  O  O33  1  0.13714270  0.60651027  0.22742932  1
  O  O34  1  0.30365320  0.95466230  0.80324059  1
  O  O35  1  0.21838630  0.86383102  0.33722878  1
  O  O36  1  0.25843194  0.63858408  0.46014410  1
  O  O37  1  0.35919590  0.28490759  0.90585728  1
  O  O38  1  0.36401167  0.66481825  0.79343133  1
  O  O39  1  0.39797744  0.78707555  0.96520270  1
  O  O40  1  0.24155022  0.13860122  0.03980433  1
  O  O41  1  0.28164504  0.36386643  0.16278179  1
  O  O42  1  0.42011347  0.62459446  0.62256165  1
  O  O43  1  0.36279830  0.10648273  0.27259558  1
  O  O44  1  0.42853865  0.87283469  0.53447985  1
  O  O45  1  0.33443218  0.62365822  0.09748823  1
  O  O46  1  0.53068555  0.43197069  0.73794701  1
  O  O47  1  0.39926572  0.91110783  0.12865922  1
  O  O48  1  0.60073428  0.08889217  0.87134078  1
  O  O49  1  0.46931445  0.56802931  0.26205299  1
  O  O50  1  0.66556782  0.37634178  0.90251177  1
  O  O51  1  0.57146135  0.12716531  0.46552015  1
  O  O52  1  0.63720170  0.89351727  0.72740442  1
  O  O53  1  0.57988653  0.37540554  0.37743835  1
  O  O54  1  0.71835496  0.63613357  0.83721821  1
  O  O55  1  0.75844978  0.86139878  0.96019567  1
  O  O56  1  0.60202256  0.21292445  0.03479730  1
  O  O57  1  0.63598833  0.33518175  0.20656867  1
  O  O58  1  0.64080410  0.71509241  0.09414272  1
  O  O59  1  0.74156806  0.36141592  0.53985590  1
  O  O60  1  0.78161370  0.13616898  0.66277122  1
  O  O61  1  0.69634680  0.04533770  0.19675941  1
  O  O62  1  0.86285730  0.39348973  0.77257068  1
  O  O63  1  0.83441229  0.87636073  0.59750357  1
  O  O64  1  0.80369572  0.54535346  0.30323031  1
  O  O65  1  0.89926727  0.58890243  0.62867949  1
  O  O66  1  0.85917045  0.21508692  0.40585262  1
  O  O67  1  0.86398898  0.83518090  0.29343201  1
  O  O68  1  0.89796733  0.71294475  0.46518510  1
  O  O69  1  0.96928329  0.93195392  0.76205416  1
  O  O70  1  0.92010477  0.87540675  0.12254023  1
  O  O71  1  0.92852680  0.62717764  0.03447091  1
