# generated using pymatgen
data_SrMg2FeH8
_symmetry_space_group_name_H-M   'P 1'
_cell_length_a   4.50075074
_cell_length_b   4.50076356
_cell_length_c   6.56745665
_cell_angle_alpha   89.99999999
_cell_angle_beta   90.00079632
_cell_angle_gamma   120.00009047
_symmetry_Int_Tables_number   1
_chemical_formula_structural   SrMg2FeH8
_chemical_formula_sum   'Sr1 Mg2 Fe1 H8'
_cell_volume   115.21223755
_cell_formula_units_Z   1
loop_
 _symmetry_equiv_pos_site_id
 _symmetry_equiv_pos_as_xyz
  1  'x, y, z'
loop_
 _atom_site_type_symbol
 _atom_site_label
 _atom_site_symmetry_multiplicity
 _atom_site_fract_x
 _atom_site_fract_y
 _atom_site_fract_z
 _atom_site_occupancy
  Sr  Sr0  1  0.00000000  0.00000000  0.50000000  1
  Mg  Mg1  1  0.66662015  0.33331007  0.87769558  1
  Mg  Mg2  1  0.33337985  0.66668993  0.12230442  1
  Fe  Fe3  1  0.00000000  0.00000000  0.00000000  1
  H  H4  1  0.32254317  0.16127159  0.14406600  1
  H  H5  1  0.83873078  0.67745665  0.14406415  1
  H  H6  1  0.83873078  0.16127413  0.14406415  1
  H  H7  1  0.67745683  0.83872841  0.85593400  1
  H  H8  1  0.16126922  0.32254335  0.85593585  1
  H  H9  1  0.16126922  0.83872587  0.85593585  1
  H  H10  1  0.66660779  0.33330389  0.58561866  1
  H  H11  1  0.33339221  0.66669611  0.41438134  1
