# generated using pymatgen
data_Se5SO3F
_symmetry_space_group_name_H-M   'P 1'
_cell_length_a   8.86265870
_cell_length_b   13.60741791
_cell_length_c   15.51581395
_cell_angle_alpha   90.00000000
_cell_angle_beta   90.00000000
_cell_angle_gamma   90.00000000
_symmetry_Int_Tables_number   1
_chemical_formula_structural   Se5SO3F
_chemical_formula_sum   'Se40 S8 O24 F8'
_cell_volume   1871.17459040
_cell_formula_units_Z   8
loop_
 _symmetry_equiv_pos_site_id
 _symmetry_equiv_pos_as_xyz
  1  'x, y, z'
loop_
 _atom_site_type_symbol
 _atom_site_label
 _atom_site_symmetry_multiplicity
 _atom_site_fract_x
 _atom_site_fract_y
 _atom_site_fract_z
 _atom_site_occupancy
  Se  Se0  1  0.64314399  0.49953458  0.10632650  1
  Se  Se1  1  0.67714098  0.51721185  0.72963333  1
  Se  Se2  1  0.82285902  0.48278815  0.22963333  1
  Se  Se3  1  0.14314399  0.00046542  0.89367350  1
  Se  Se4  1  0.03076770  0.11953477  0.49841426  1
  Se  Se5  1  0.08631170  0.14044972  0.26363086  1
  Se  Se6  1  0.77709199  0.96728434  0.34315428  1
  Se  Se7  1  0.32285902  0.01721185  0.77036667  1
  Se  Se8  1  0.96923230  0.61953477  0.00158574  1
  Se  Se9  1  0.83934949  0.88824767  0.46955311  1
  Se  Se10  1  0.23996214  0.83842021  0.94554585  1
  Se  Se11  1  0.74906839  0.38703040  0.99863511  1
  Se  Se12  1  0.37220021  0.36440874  0.63778417  1
  Se  Se13  1  0.16065051  0.38824767  0.03044689  1
  Se  Se14  1  0.12779979  0.63559126  0.13778417  1
  Se  Se15  1  0.25093161  0.88703040  0.50136489  1
  Se  Se16  1  0.17714098  0.98278815  0.27036667  1
  Se  Se17  1  0.87220021  0.13559126  0.36221583  1
  Se  Se18  1  0.53076770  0.38046523  0.50158574  1
  Se  Se19  1  0.27709199  0.53271566  0.65684572  1
  Se  Se20  1  0.06383331  0.80049756  0.43102438  1
  Se  Se21  1  0.46923230  0.88046523  0.99841426  1
  Se  Se22  1  0.22290801  0.46728434  0.15684572  1
  Se  Se23  1  0.93616669  0.30049756  0.06897562  1
  Se  Se24  1  0.73996214  0.66157979  0.05445415  1
  Se  Se25  1  0.24906839  0.11296960  0.00136489  1
  Se  Se26  1  0.66065051  0.11175233  0.96955311  1
  Se  Se27  1  0.72290801  0.03271566  0.84315428  1
  Se  Se28  1  0.43616669  0.19950244  0.93102438  1
  Se  Se29  1  0.26003786  0.16157979  0.44554585  1
  Se  Se30  1  0.76003786  0.33842021  0.55445415  1
  Se  Se31  1  0.62779979  0.86440874  0.86221583  1
  Se  Se32  1  0.56383331  0.69950244  0.56897562  1
  Se  Se33  1  0.41368830  0.85955028  0.76363086  1
  Se  Se34  1  0.33934949  0.61175233  0.53044689  1
  Se  Se35  1  0.75093161  0.61296960  0.49863511  1
  Se  Se36  1  0.91368830  0.64044972  0.23636914  1
  Se  Se37  1  0.58631170  0.35955028  0.73636914  1
  Se  Se38  1  0.85685601  0.50046542  0.60632650  1
  Se  Se39  1  0.35685601  0.99953458  0.39367350  1
  S  S40  1  0.89546813  0.91933894  0.08616266  1
  S  S41  1  0.60453187  0.08066106  0.58616266  1
  S  S42  1  0.97731251  0.78081016  0.72579320  1
  S  S43  1  0.39546813  0.58066106  0.91383734  1
  S  S44  1  0.10453187  0.41933894  0.41383734  1
  S  S45  1  0.52268749  0.21918984  0.22579320  1
  S  S46  1  0.47731251  0.71918984  0.27420680  1
  S  S47  1  0.02268749  0.28081016  0.77420680  1
  O  O48  1  0.03849147  0.51288105  0.43948269  1
  O  O49  1  0.17440113  0.36368000  0.48410831  1
  O  O50  1  0.01593485  0.36161391  0.35358801  1
  O  O51  1  0.82559887  0.86368000  0.01589169  1
  O  O52  1  0.51593485  0.13838609  0.64641199  1
  O  O53  1  0.85871908  0.82252922  0.67318703  1
  O  O54  1  0.37822044  0.23792134  0.18447368  1
  O  O55  1  0.62177956  0.73792134  0.31552632  1
  O  O56  1  0.48406515  0.63838609  0.85358801  1
  O  O57  1  0.64128092  0.17747078  0.17318703  1
  O  O58  1  0.98406515  0.86161391  0.14641199  1
  O  O59  1  0.46150853  0.48711895  0.93948269  1
  O  O60  1  0.67440113  0.13632000  0.51589169  1
  O  O61  1  0.51700454  0.18123152  0.31396917  1
  O  O62  1  0.01700454  0.31876848  0.68603083  1
  O  O63  1  0.12177956  0.76207866  0.68447368  1
  O  O64  1  0.35871908  0.67747078  0.32681297  1
  O  O65  1  0.87822044  0.26207866  0.81552632  1
  O  O66  1  0.53849147  0.98711895  0.56051731  1
  O  O67  1  0.32559887  0.63632000  0.98410831  1
  O  O68  1  0.48299546  0.68123152  0.18603083  1
  O  O69  1  0.96150853  0.01288105  0.06051731  1
  O  O70  1  0.98299546  0.81876848  0.81396917  1
  O  O71  1  0.14128092  0.32252922  0.82681297  1
  F  F72  1  0.58521052  0.33420197  0.24132677  1
  F  F73  1  0.08521052  0.16579803  0.75867323  1
  F  F74  1  0.75147386  0.04654636  0.64263521  1
  F  F75  1  0.91478948  0.66579803  0.74132677  1
  F  F76  1  0.24852614  0.54654636  0.85736479  1
  F  F77  1  0.41478948  0.83420197  0.25867323  1
  F  F78  1  0.74852614  0.95345364  0.14263521  1
  F  F79  1  0.25147386  0.45345364  0.35736479  1
