# generated using pymatgen
data_Cs2K2Cd3O5
_symmetry_space_group_name_H-M   'P 1'
_cell_length_a   6.71165098
_cell_length_b   9.43887725
_cell_length_c   9.60841510
_cell_angle_alpha   65.64947146
_cell_angle_beta   73.90567788
_cell_angle_gamma   71.57346038
_symmetry_Int_Tables_number   1
_chemical_formula_structural   Cs2K2Cd3O5
_chemical_formula_sum   'Cs4 K4 Cd6 O10'
_cell_volume   518.46256941
_cell_formula_units_Z   2
loop_
 _symmetry_equiv_pos_site_id
 _symmetry_equiv_pos_as_xyz
  1  'x, y, z'
loop_
 _atom_site_type_symbol
 _atom_site_label
 _atom_site_symmetry_multiplicity
 _atom_site_fract_x
 _atom_site_fract_y
 _atom_site_fract_z
 _atom_site_occupancy
  Cs  Cs0  1  0.04914567  0.57510941  0.64903367  1
  Cs  Cs1  1  0.61065135  0.28804879  0.75448861  1
  Cs  Cs2  1  0.38934865  0.71195121  0.24551139  1
  Cs  Cs3  1  0.95085433  0.42489059  0.35096633  1
  K  K4  1  0.05680399  0.95183135  0.69440372  1
  K  K5  1  0.24132089  0.57142277  0.97706942  1
  K  K6  1  0.75867911  0.42857723  0.02293058  1
  K  K7  1  0.94319601  0.04816865  0.30559628  1
  Cd  Cd8  1  0.59884673  0.81888369  0.50310226  1
  Cd  Cd9  1  0.12624973  0.14041534  0.90840351  1
  Cd  Cd10  1  0.43247021  0.17020276  0.17081521  1
  Cd  Cd11  1  0.87375027  0.85958466  0.09159649  1
  Cd  Cd12  1  0.40115327  0.18111631  0.49689774  1
  Cd  Cd13  1  0.56752979  0.82979724  0.82918479  1
  O  O14  1  0.81756389  0.71771075  0.98060806  1
  O  O15  1  0.43565289  0.36425011  0.25834813  1
  O  O16  1  0.18243611  0.28228925  0.01939194  1
  O  O17  1  0.31980499  0.99854746  0.40489270  1
  O  O18  1  0.68019501  0.00145254  0.59510730  1
  O  O19  1  0.11032873  0.25287811  0.65437451  1
  O  O20  1  0.56434711  0.63574989  0.74165187  1
  O  O21  1  0.88967127  0.74712189  0.34562549  1
  O  O22  1  0.76764627  0.12185855  0.03958873  1
  O  O23  1  0.23235373  0.87814145  0.96041127  1
