# generated using pymatgen
data_SrMgNiH4
_symmetry_space_group_name_H-M   'P 1'
_cell_length_a   6.92001269
_cell_length_b   6.92001487
_cell_length_c   6.92001321
_cell_angle_alpha   90.00961920
_cell_angle_beta   89.99486077
_cell_angle_gamma   89.98830014
_symmetry_Int_Tables_number   1
_chemical_formula_structural   SrMgNiH4
_chemical_formula_sum   'Sr4 Mg4 Ni4 H16'
_cell_volume   331.37582765
_cell_formula_units_Z   4
loop_
 _symmetry_equiv_pos_site_id
 _symmetry_equiv_pos_as_xyz
  1  'x, y, z'
loop_
 _atom_site_type_symbol
 _atom_site_label
 _atom_site_symmetry_multiplicity
 _atom_site_fract_x
 _atom_site_fract_y
 _atom_site_fract_z
 _atom_site_occupancy
  Sr  Sr0  1  0.16196750  0.66202091  0.83805880  1
  Sr  Sr1  1  0.66194329  0.83800141  0.16201186  1
  Sr  Sr2  1  0.83795173  0.16201984  0.66205464  1
  Sr  Sr3  1  0.33795812  0.33803738  0.33801063  1
  Mg  Mg4  1  0.84828957  0.34829875  0.15178182  1
  Mg  Mg5  1  0.34822936  0.15168643  0.84828138  1
  Mg  Mg6  1  0.15168227  0.84830355  0.34834030  1
  Mg  Mg7  1  0.65168388  0.65176636  0.65169025  1
  Ni  Ni8  1  0.44043668  0.94049875  0.55953253  1
  Ni  Ni9  1  0.94034425  0.55967378  0.44039494  1
  Ni  Ni10  1  0.56004214  0.43993399  0.93995158  1
  Ni  Ni11  1  0.05966541  0.05967135  0.05970023  1
  H  H12  1  0.57405131  0.07412754  0.42592903  1
  H  H13  1  0.07399173  0.42597534  0.57408469  1
  H  H14  1  0.42624528  0.57372091  0.07373195  1
  H  H15  1  0.92597970  0.92605598  0.92607086  1
  H  H16  1  0.26458430  0.95564557  0.08143734  1
  H  H17  1  0.91855072  0.76461484  0.54441477  1
  H  H18  1  0.45552180  0.41860986  0.73530418  1
  H  H19  1  0.76468889  0.54445137  0.91862200  1
  H  H20  1  0.41855460  0.73544382  0.45567685  1
  H  H21  1  0.95555936  0.08142852  0.26467597  1
  H  H22  1  0.73535885  0.45565835  0.41862867  1
  H  H23  1  0.08136427  0.26465694  0.95566587  1
  H  H24  1  0.54429862  0.91861275  0.76461271  1
  H  H25  1  0.23537948  0.04437612  0.58144033  1
  H  H26  1  0.58136930  0.23528615  0.04445375  1
  H  H27  1  0.04430760  0.58142342  0.23544208  1
