# generated using pymatgen
data_Mg3MnH7
_symmetry_space_group_name_H-M   'P 1'
_cell_length_a   4.67490007
_cell_length_b   4.67485843
_cell_length_c   10.27122933
_cell_angle_alpha   90.00000000
_cell_angle_beta   90.00000000
_cell_angle_gamma   120.00029470
_symmetry_Int_Tables_number   1
_chemical_formula_structural   Mg3MnH7
_chemical_formula_sum   'Mg6 Mn2 H14'
_cell_volume   194.39834523
_cell_formula_units_Z   2
loop_
 _symmetry_equiv_pos_site_id
 _symmetry_equiv_pos_as_xyz
  1  'x, y, z'
loop_
 _atom_site_type_symbol
 _atom_site_label
 _atom_site_symmetry_multiplicity
 _atom_site_fract_x
 _atom_site_fract_y
 _atom_site_fract_z
 _atom_site_occupancy
  Mg  Mg0  1  0.00000490  0.00000980  0.25000000  1
  Mg  Mg1  1  0.99999510  0.99999020  0.75000000  1
  Mg  Mg2  1  0.33331737  0.66663474  0.43379484  1
  Mg  Mg3  1  0.66668263  0.33336526  0.56620516  1
  Mg  Mg4  1  0.66668263  0.33336526  0.93379484  1
  Mg  Mg5  1  0.33331737  0.66663474  0.06620516  1
  Mn  Mn6  1  0.00000000  0.00000000  0.50000000  1
  Mn  Mn7  1  0.00000000  0.00000000  0.00000000  1
  H  H8  1  0.16305599  0.83694772  0.90693607  1
  H  H9  1  0.16305352  0.32610705  0.90693442  1
  H  H10  1  0.67389173  0.83694772  0.90693607  1
  H  H11  1  0.83694401  0.16305228  0.09306393  1
  H  H12  1  0.83694648  0.67389295  0.09306558  1
  H  H13  1  0.32610827  0.16305228  0.09306393  1
  H  H14  1  0.83694401  0.16305228  0.40693607  1
  H  H15  1  0.83694648  0.67389295  0.40693442  1
  H  H16  1  0.32610827  0.16305228  0.40693607  1
  H  H17  1  0.16305599  0.83694772  0.59306393  1
  H  H18  1  0.16305352  0.32610705  0.59306558  1
  H  H19  1  0.67389173  0.83694772  0.59306393  1
  H  H20  1  0.33330186  0.66660372  0.25000000  1
  H  H21  1  0.66669814  0.33339628  0.75000000  1
