# generated using pymatgen
data_Ta5AuS
_symmetry_space_group_name_H-M   'P 1'
_cell_length_a   8.92393488
_cell_length_b   8.92393578
_cell_length_c   8.92391735
_cell_angle_alpha   59.99966442
_cell_angle_beta   59.99990483
_cell_angle_gamma   59.99975903
_symmetry_Int_Tables_number   1
_chemical_formula_structural   Ta5AuS
_chemical_formula_sum   'Ta20 Au4 S4'
_cell_volume   502.51747098
_cell_formula_units_Z   4
loop_
 _symmetry_equiv_pos_site_id
 _symmetry_equiv_pos_as_xyz
  1  'x, y, z'
loop_
 _atom_site_type_symbol
 _atom_site_label
 _atom_site_symmetry_multiplicity
 _atom_site_fract_x
 _atom_site_fract_y
 _atom_site_fract_z
 _atom_site_occupancy
  Ta  Ta0  1  0.55219156  0.55219831  0.94780592  1
  Ta  Ta1  1  0.77722981  0.77722615  0.22276862  1
  Ta  Ta2  1  0.58195661  0.58195571  0.25413247  1
  Ta  Ta3  1  0.55218966  0.94780521  0.94780488  1
  Ta  Ta4  1  0.36802543  0.36802236  0.89593261  1
  Ta  Ta5  1  0.77722987  0.22276898  0.77722925  1
  Ta  Ta6  1  0.94780690  0.55219132  0.94780694  1
  Ta  Ta7  1  0.58195583  0.58195573  0.58195779  1
  Ta  Ta8  1  0.77723171  0.22277309  0.22276810  1
  Ta  Ta9  1  0.89593450  0.36802143  0.36802544  1
  Ta  Ta10  1  0.25413277  0.58195680  0.58195620  1
  Ta  Ta11  1  0.36802524  0.36802025  0.36802447  1
  Ta  Ta12  1  0.58195790  0.25412984  0.58195577  1
  Ta  Ta13  1  0.94780615  0.94780524  0.55219096  1
  Ta  Ta14  1  0.22276927  0.22277135  0.77723225  1
  Ta  Ta15  1  0.22277005  0.77722875  0.22277280  1
  Ta  Ta16  1  0.94780518  0.55219607  0.55219347  1
  Ta  Ta17  1  0.55219545  0.94780492  0.55219824  1
  Ta  Ta18  1  0.36802572  0.89593307  0.36802250  1
  Ta  Ta19  1  0.22276897  0.77722825  0.77723063  1
  Au  Au20  1  0.14971697  0.55085570  0.14971566  1
  Au  Au21  1  0.55085947  0.14971330  0.14971622  1
  Au  Au22  1  0.14971655  0.14971214  0.55086023  1
  Au  Au23  1  0.14971600  0.14971392  0.14971349  1
  S  S24  1  0.88092437  0.88092878  0.35721678  1
  S  S25  1  0.88092054  0.88092613  0.88092086  1
  S  S26  1  0.88092356  0.35722790  0.88092141  1
  S  S27  1  0.35721395  0.88092931  0.88092605  1
