# generated using pymatgen
data_Cs3Re3(SI)4
_symmetry_space_group_name_H-M   'P 1'
_cell_length_a   11.44884920
_cell_length_b   11.44884944
_cell_length_c   11.44884961
_cell_angle_alpha   59.99999947
_cell_angle_beta   59.99999879
_cell_angle_gamma   59.99999809
_symmetry_Int_Tables_number   1
_chemical_formula_structural   Cs3Re3(SI)4
_chemical_formula_sum   'Cs6 Re6 S8 I8'
_cell_volume   1061.13470797
_cell_formula_units_Z   2
loop_
 _symmetry_equiv_pos_site_id
 _symmetry_equiv_pos_as_xyz
  1  'x, y, z'
loop_
 _atom_site_type_symbol
 _atom_site_label
 _atom_site_symmetry_multiplicity
 _atom_site_fract_x
 _atom_site_fract_y
 _atom_site_fract_z
 _atom_site_occupancy
  Cs  Cs0  1  0.50000000  0.50000000  0.00000000  1
  Cs  Cs1  1  0.50000000  0.00000000  0.50000000  1
  Cs  Cs2  1  0.00000000  0.50000000  0.00000000  1
  Cs  Cs3  1  0.00000000  0.50000000  0.50000000  1
  Cs  Cs4  1  0.00000000  0.00000000  0.50000000  1
  Cs  Cs5  1  0.50000000  0.00000000  0.00000000  1
  Re  Re6  1  0.38508798  0.38508798  0.61491202  1
  Re  Re7  1  0.61491202  0.61491202  0.38508798  1
  Re  Re8  1  0.61491202  0.38508798  0.38508798  1
  Re  Re9  1  0.38508798  0.61491202  0.38508798  1
  Re  Re10  1  0.38508798  0.61491202  0.61491202  1
  Re  Re11  1  0.61491202  0.38508798  0.61491202  1
  S  S12  1  0.60573234  0.60573234  0.60573234  1
  S  S13  1  0.39426766  0.81719702  0.39426766  1
  S  S14  1  0.81719702  0.39426766  0.39426766  1
  S  S15  1  0.60573234  0.18280298  0.60573234  1
  S  S16  1  0.39426766  0.39426766  0.81719702  1
  S  S17  1  0.18280298  0.60573234  0.60573234  1
  S  S18  1  0.39426766  0.39426766  0.39426766  1
  S  S19  1  0.60573234  0.60573234  0.18280298  1
  I  I20  1  0.78947205  0.21052795  0.21052795  1
  I  I21  1  0.78947205  0.78947205  0.21052795  1
  I  I22  1  0.21052795  0.21052795  0.78947205  1
  I  I23  1  0.25000000  0.25000000  0.25000000  1
  I  I24  1  0.78947205  0.21052795  0.78947205  1
  I  I25  1  0.75000000  0.75000000  0.75000000  1
  I  I26  1  0.21052795  0.78947205  0.78947205  1
  I  I27  1  0.21052795  0.78947205  0.21052795  1
