# generated using pymatgen
data_LiSnP2O7
_symmetry_space_group_name_H-M   'P 1'
_cell_length_a   6.66296431
_cell_length_b   6.73658197
_cell_length_c   6.82123734
_cell_angle_alpha   113.38425902
_cell_angle_beta   99.10768230
_cell_angle_gamma   81.39541347
_symmetry_Int_Tables_number   1
_chemical_formula_structural   LiSnP2O7
_chemical_formula_sum   'Li2 Sn2 P4 O14'
_cell_volume   276.20894409
_cell_formula_units_Z   2
loop_
 _symmetry_equiv_pos_site_id
 _symmetry_equiv_pos_as_xyz
  1  'x, y, z'
loop_
 _atom_site_type_symbol
 _atom_site_label
 _atom_site_symmetry_multiplicity
 _atom_site_fract_x
 _atom_site_fract_y
 _atom_site_fract_z
 _atom_site_occupancy
  Li  Li0  1  0.11861180  0.66059273  0.14337861  1
  Li  Li1  1  0.88138820  0.33940727  0.85662139  1
  Sn  Sn2  1  0.32511545  0.88725006  0.74770918  1
  Sn  Sn3  1  0.67488455  0.11274994  0.25229082  1
  P  P4  1  0.15270185  0.22518392  0.23446477  1
  P  P5  1  0.39205943  0.35131268  0.67644928  1
  P  P6  1  0.60794057  0.64868732  0.32355072  1
  P  P7  1  0.84729815  0.77481608  0.76553523  1
  O  O8  1  0.98767025  0.91661192  0.72906566  1
  O  O9  1  0.05037688  0.37822916  0.13036491  1
  O  O10  1  0.25886411  0.37748521  0.46336905  1
  O  O11  1  0.27514568  0.21222805  0.74195637  1
  O  O12  1  0.33484234  0.06883113  0.11367687  1
  O  O13  1  0.39428772  0.58737362  0.83588820  1
  O  O14  1  0.39240457  0.75252920  0.38806900  1
  O  O15  1  0.60759543  0.24747080  0.61193100  1
  O  O16  1  0.60571228  0.41262638  0.16411180  1
  O  O17  1  0.66515766  0.93116887  0.88632313  1
  O  O18  1  0.72485432  0.78777195  0.25804363  1
  O  O19  1  0.74113589  0.62251479  0.53663095  1
  O  O20  1  0.94962312  0.62177084  0.86963509  1
  O  O21  1  0.01232975  0.08338808  0.27093434  1
