# generated using pymatgen
data_UWC2
_symmetry_space_group_name_H-M   'P 1'
_cell_length_a   3.25198270
_cell_length_b   5.61396935
_cell_length_c   11.08815346
_cell_angle_alpha   90.00000000
_cell_angle_beta   90.00000000
_cell_angle_gamma   90.00000000
_symmetry_Int_Tables_number   1
_chemical_formula_structural   UWC2
_chemical_formula_sum   'U4 W4 C8'
_cell_volume   202.43121964
_cell_formula_units_Z   4
loop_
 _symmetry_equiv_pos_site_id
 _symmetry_equiv_pos_as_xyz
  1  'x, y, z'
loop_
 _atom_site_type_symbol
 _atom_site_label
 _atom_site_symmetry_multiplicity
 _atom_site_fract_x
 _atom_site_fract_y
 _atom_site_fract_z
 _atom_site_occupancy
  U  U0  1  0.25000000  0.58117687  0.35780104  1
  U  U1  1  0.75000000  0.91882313  0.85780104  1
  U  U2  1  0.25000000  0.08117687  0.14219896  1
  U  U3  1  0.75000000  0.41882313  0.64219896  1
  W  W4  1  0.25000000  0.41942905  0.89769394  1
  W  W5  1  0.25000000  0.91942905  0.60230606  1
  W  W6  1  0.75000000  0.08057095  0.39769394  1
  W  W7  1  0.75000000  0.58057095  0.10230606  1
  C  C8  1  0.25000000  0.16182223  0.75531274  1
  C  C9  1  0.75000000  0.75226801  0.50870626  1
  C  C10  1  0.25000000  0.74773199  0.00870626  1
  C  C11  1  0.75000000  0.25226801  0.99129374  1
  C  C12  1  0.75000000  0.83817777  0.24468726  1
  C  C13  1  0.75000000  0.33817777  0.25531274  1
  C  C14  1  0.25000000  0.66182223  0.74468726  1
  C  C15  1  0.25000000  0.24773199  0.49129374  1
