# generated using pymatgen
data_KNb(CuSe2)2
_symmetry_space_group_name_H-M   'P 1'
_cell_length_a   5.72738215
_cell_length_b   7.79359139
_cell_length_c   10.03200061
_cell_angle_alpha   90.00000000
_cell_angle_beta   106.58608584
_cell_angle_gamma   90.00000000
_symmetry_Int_Tables_number   1
_chemical_formula_structural   KNb(CuSe2)2
_chemical_formula_sum   'K2 Nb2 Cu4 Se8'
_cell_volume   429.16519127
_cell_formula_units_Z   2
loop_
 _symmetry_equiv_pos_site_id
 _symmetry_equiv_pos_as_xyz
  1  'x, y, z'
loop_
 _atom_site_type_symbol
 _atom_site_label
 _atom_site_symmetry_multiplicity
 _atom_site_fract_x
 _atom_site_fract_y
 _atom_site_fract_z
 _atom_site_occupancy
  K  K0  1  0.92370590  0.75000000  0.36756846  1
  K  K1  1  0.55613743  0.25000000  0.63243154  1
  Cu  Cu2  1  0.10666456  0.25000000  0.21315199  1
  Cu  Cu3  1  0.89351257  0.75000000  0.78684801  1
  Cu  Cu4  1  0.48372998  0.50000000  0.00000000  1
  Cu  Cu5  1  0.48372998  0.00000000  0.00000000  1
  Se  Se6  1  0.74925983  0.25000000  0.00600853  1
  Se  Se7  1  0.14399826  0.49439054  0.78640068  1
  Se  Se8  1  0.54104593  0.75000000  0.57862775  1
  Se  Se9  1  0.74325130  0.75000000  0.99399147  1
  Se  Se10  1  0.96241818  0.25000000  0.42137225  1
  Se  Se11  1  0.14399826  0.00560946  0.78640068  1
  Se  Se12  1  0.35759758  0.99439054  0.21359932  1
  Se  Se13  1  0.35759758  0.50560946  0.21359932  1
  Nb  Nb14  1  0.60873017  0.25000000  0.21804767  1
  Nb  Nb15  1  0.39068250  0.75000000  0.78195233  1
