# generated using pymatgen
data_Sr3InRhO6
_symmetry_space_group_name_H-M   'P 1'
_cell_length_a   6.82203417
_cell_length_b   6.82185763
_cell_length_c   6.82027979
_cell_angle_alpha   91.09765069
_cell_angle_beta   91.09874454
_cell_angle_gamma   91.10066795
_symmetry_Int_Tables_number   1
_chemical_formula_structural   Sr3InRhO6
_chemical_formula_sum   'Sr6 In2 Rh2 O12'
_cell_volume   317.23118700
_cell_formula_units_Z   2
loop_
 _symmetry_equiv_pos_site_id
 _symmetry_equiv_pos_as_xyz
  1  'x, y, z'
loop_
 _atom_site_type_symbol
 _atom_site_label
 _atom_site_symmetry_multiplicity
 _atom_site_fract_x
 _atom_site_fract_y
 _atom_site_fract_z
 _atom_site_occupancy
  Sr  Sr0  1  0.74999881  0.38148465  0.11849161  1
  Sr  Sr1  1  0.11852470  0.74986674  0.38140329  1
  Sr  Sr2  1  0.61851394  0.88142668  0.24998199  1
  Sr  Sr3  1  0.88142819  0.24983825  0.61854054  1
  Sr  Sr4  1  0.25005093  0.61850145  0.88154955  1
  Sr  Sr5  1  0.38164168  0.11848454  0.75009171  1
  In  In6  1  0.75002434  0.75019334  0.74974130  1
  In  In7  1  0.24989445  0.25000046  0.25021549  1
  Rh  Rh8  1  0.00004857  -0.00002329  0.00003030  1
  Rh  Rh9  1  0.49996936  0.49995941  0.50002459  1
  O  O10  1  0.54050794  0.21063271  0.40555559  1
  O  O11  1  0.59435297  0.45953916  0.78943299  1
  O  O12  1  0.09427167  0.28937729  0.95950336  1
  O  O13  1  0.95944395  0.09430465  0.28961583  1
  O  O14  1  0.28946141  0.95957624  0.09436789  1
  O  O15  1  0.40562139  0.54056415  0.21045793  1
  O  O16  1  0.04058979  0.90574821  0.71045387  1
  O  O17  1  0.45938027  0.78933198  0.59436699  1
  O  O18  1  0.90568202  0.71066646  0.04044443  1
  O  O19  1  0.71058036  0.04053023  0.90567781  1
  O  O20  1  0.21055050  0.40567898  0.54064081  1
  O  O21  1  0.78946276  0.59431772  0.45941215  1
