# generated using pymatgen
data_Li(FeGe)6
_symmetry_space_group_name_H-M   'P 1'
_cell_length_a   8.70096407
_cell_length_b   8.70096395
_cell_length_c   7.99278854
_cell_angle_alpha   90.00000000
_cell_angle_beta   90.00000000
_cell_angle_gamma   120.00000041
_symmetry_Int_Tables_number   1
_chemical_formula_structural   Li(FeGe)6
_chemical_formula_sum   'Li3 Fe18 Ge18'
_cell_volume   524.03910701
_cell_formula_units_Z   3
loop_
 _symmetry_equiv_pos_site_id
 _symmetry_equiv_pos_as_xyz
  1  'x, y, z'
loop_
 _atom_site_type_symbol
 _atom_site_label
 _atom_site_symmetry_multiplicity
 _atom_site_fract_x
 _atom_site_fract_y
 _atom_site_fract_z
 _atom_site_occupancy
  Li  Li0  1  0.00000000  0.00000000  0.50000000  1
  Li  Li1  1  0.66666700  0.33333300  0.00000000  1
  Li  Li2  1  0.33333300  0.66666700  0.00000000  1
  Fe  Fe3  1  0.16685855  0.33371710  0.24824955  1
  Fe  Fe4  1  0.83314145  0.66628290  0.75175045  1
  Fe  Fe5  1  0.66628290  0.83314145  0.75175045  1
  Fe  Fe6  1  0.83314145  0.66628290  0.24824955  1
  Fe  Fe7  1  0.33371710  0.16685855  0.75175045  1
  Fe  Fe8  1  0.50000000  0.00000000  0.25294606  1
  Fe  Fe9  1  0.33371710  0.16685855  0.24824955  1
  Fe  Fe10  1  0.16685855  0.83314145  0.24824955  1
  Fe  Fe11  1  0.83314145  0.16685855  0.75175045  1
  Fe  Fe12  1  0.50000000  0.50000000  0.74705394  1
  Fe  Fe13  1  0.16685855  0.33371710  0.75175045  1
  Fe  Fe14  1  0.66628290  0.83314145  0.24824955  1
  Fe  Fe15  1  0.00000000  0.50000000  0.74705394  1
  Fe  Fe16  1  0.83314145  0.16685855  0.24824955  1
  Fe  Fe17  1  0.16685855  0.83314145  0.75175045  1
  Fe  Fe18  1  0.50000000  0.50000000  0.25294606  1
  Fe  Fe19  1  0.50000000  0.00000000  0.74705394  1
  Fe  Fe20  1  0.00000000  0.50000000  0.25294606  1
  Ge  Ge21  1  0.33333300  0.66666700  0.33697139  1
  Ge  Ge22  1  0.66666700  0.33333300  0.33697139  1
  Ge  Ge23  1  0.00000000  0.67134988  0.50000000  1
  Ge  Ge24  1  0.66143933  0.66143933  0.00000000  1
  Ge  Ge25  1  0.66666700  0.33333300  0.66302861  1
  Ge  Ge26  1  0.32865012  0.32865012  0.50000000  1
  Ge  Ge27  1  0.33333300  0.66666700  0.66302861  1
  Ge  Ge28  1  1.00000000  0.32865012  0.50000000  1
  Ge  Ge29  1  0.67134988  0.00000000  0.50000000  1
  Ge  Ge30  1  0.00000000  0.66143933  0.00000000  1
  Ge  Ge31  1  0.00000000  0.00000000  0.16187617  1
  Ge  Ge32  1  0.33856067  0.00000000  0.00000000  1
  Ge  Ge33  1  0.33856067  0.33856067  0.00000000  1
  Ge  Ge34  1  0.66143933  0.00000000  0.00000000  1
  Ge  Ge35  1  0.00000000  0.00000000  0.83812383  1
  Ge  Ge36  1  0.67134988  0.67134988  0.50000000  1
  Ge  Ge37  1  0.00000000  0.33856067  0.00000000  1
  Ge  Ge38  1  0.32865012  0.00000000  0.50000000  1
