# generated using pymatgen
data_Ba2ErCl7
_symmetry_space_group_name_H-M   'P 1'
_cell_length_a   6.91802171
_cell_length_b   10.66440073
_cell_length_c   15.74459393
_cell_angle_alpha   90.00000000
_cell_angle_beta   90.00000000
_cell_angle_gamma   90.69204506
_symmetry_Int_Tables_number   1
_chemical_formula_structural   Ba2ErCl7
_chemical_formula_sum   'Ba8 Er4 Cl28'
_cell_volume   1161.49718308
_cell_formula_units_Z   4
loop_
 _symmetry_equiv_pos_site_id
 _symmetry_equiv_pos_as_xyz
  1  'x, y, z'
loop_
 _atom_site_type_symbol
 _atom_site_label
 _atom_site_symmetry_multiplicity
 _atom_site_fract_x
 _atom_site_fract_y
 _atom_site_fract_z
 _atom_site_occupancy
  Ba  Ba0  1  0.73457369  0.82363852  0.43917880  1
  Ba  Ba1  1  0.26479035  0.54912769  0.27982070  1
  Ba  Ba2  1  0.26542631  0.17636148  0.56082120  1
  Ba  Ba3  1  0.73520965  0.45087231  0.72017930  1
  Ba  Ba4  1  0.26542631  0.67636148  0.93917880  1
  Ba  Ba5  1  0.73520965  0.95087231  0.77982070  1
  Ba  Ba6  1  0.26479035  0.04912769  0.22017930  1
  Ba  Ba7  1  0.73457369  0.32363852  0.06082120  1
  Er  Er8  1  0.78322436  0.28203701  0.37314716  1
  Er  Er9  1  0.78322436  0.78203701  0.12685284  1
  Er  Er10  1  0.21677564  0.21796299  0.87314716  1
  Er  Er11  1  0.21677564  0.71796299  0.62685284  1
  Cl  Cl12  1  0.99803469  0.79478851  0.27163482  1
  Cl  Cl13  1  0.00065803  0.92793636  0.60447055  1
  Cl  Cl14  1  0.12756730  0.87612030  0.07082477  1
  Cl  Cl15  1  0.29014175  0.97290734  0.86044884  1
  Cl  Cl16  1  0.48760365  0.19827305  0.74321684  1
  Cl  Cl17  1  0.51239635  0.30172695  0.24321684  1
  Cl  Cl18  1  0.70631926  0.28691576  0.53947708  1
  Cl  Cl19  1  0.51386312  0.58663574  0.10497739  1
  Cl  Cl20  1  0.29368074  0.21308424  0.03947708  1
  Cl  Cl21  1  0.00196531  0.20521149  0.72836518  1
  Cl  Cl22  1  0.29014175  0.47290734  0.63955116  1
  Cl  Cl23  1  0.70985825  0.52709266  0.36044884  1
  Cl  Cl24  1  0.48613688  0.41336426  0.89502261  1
  Cl  Cl25  1  0.99803469  0.29478851  0.22836518  1
  Cl  Cl26  1  0.12756730  0.37612030  0.42917523  1
  Cl  Cl27  1  0.99934197  0.57206364  0.10447055  1
  Cl  Cl28  1  0.70631926  0.78691576  0.96052292  1
  Cl  Cl29  1  0.87243270  0.62387970  0.57082477  1
  Cl  Cl30  1  0.99934197  0.07206364  0.39552945  1
  Cl  Cl31  1  0.70985825  0.02709266  0.13955116  1
  Cl  Cl32  1  0.51386312  0.08663574  0.39502261  1
  Cl  Cl33  1  0.51239635  0.80172695  0.25678316  1
  Cl  Cl34  1  0.29368074  0.71308424  0.46052292  1
  Cl  Cl35  1  0.00065803  0.42793636  0.89552945  1
  Cl  Cl36  1  0.48613688  0.91336426  0.60497739  1
  Cl  Cl37  1  0.87243270  0.12387970  0.92917523  1
  Cl  Cl38  1  0.00196531  0.70521149  0.77163482  1
  Cl  Cl39  1  0.48760365  0.69827305  0.75678316  1
