# generated using pymatgen
data_In2Cl3
_symmetry_space_group_name_H-M   'P 1'
_cell_length_a   12.77342212
_cell_length_b   14.74335871
_cell_length_c   25.43814114
_cell_angle_alpha   90.00000000
_cell_angle_beta   90.00000000
_cell_angle_gamma   90.00000000
_symmetry_Int_Tables_number   1
_chemical_formula_structural   In2Cl3
_chemical_formula_sum   'In64 Cl96'
_cell_volume   4790.59072385
_cell_formula_units_Z   32
loop_
 _symmetry_equiv_pos_site_id
 _symmetry_equiv_pos_as_xyz
  1  'x, y, z'
loop_
 _atom_site_type_symbol
 _atom_site_label
 _atom_site_symmetry_multiplicity
 _atom_site_fract_x
 _atom_site_fract_y
 _atom_site_fract_z
 _atom_site_occupancy
  In  In0  1  0.25716377  0.07950253  0.33625373  1
  In  In1  1  0.41077842  0.36898391  0.75000000  1
  In  In2  1  0.58121426  0.64152444  0.66134929  1
  In  In3  1  0.07831541  0.37897311  0.05442246  1
  In  In4  1  0.91878574  0.14152444  0.33865071  1
  In  In5  1  0.58922158  0.63101609  0.25000000  1
  In  In6  1  0.07831541  0.37897311  0.44557754  1
  In  In7  1  0.57974762  0.17287136  0.84514263  1
  In  In8  1  0.25716377  0.07950253  0.16374627  1
  In  In9  1  0.41464361  0.36496596  0.52962143  1
  In  In10  1  0.26807887  0.10747848  0.84111448  1
  In  In11  1  0.23192113  0.60747848  0.34111448  1
  In  In12  1  0.25289764  0.11235808  0.49493218  1
  In  In13  1  0.91878574  0.14152444  0.16134929  1
  In  In14  1  0.76807887  0.39252152  0.65888552  1
  In  In15  1  0.07730356  0.37192474  0.25000000  1
  In  In16  1  0.74283623  0.92049747  0.66374627  1
  In  In17  1  0.07974762  0.32712864  0.84514263  1
  In  In18  1  0.42168459  0.87897311  0.55442246  1
  In  In19  1  0.42168459  0.87897311  0.94557754  1
  In  In20  1  0.07974762  0.32712864  0.65485737  1
  In  In21  1  0.42025238  0.82712864  0.34514263  1
  In  In22  1  0.42025238  0.82712864  0.15485737  1
  In  In23  1  0.74283623  0.92049747  0.83625373  1
  In  In24  1  0.57831541  0.12102689  0.05442246  1
  In  In25  1  0.75716377  0.42049747  0.33625373  1
  In  In26  1  0.57831541  0.12102689  0.44557754  1
  In  In27  1  0.26807887  0.10747848  0.65888552  1
  In  In28  1  0.41464361  0.36496596  0.97037857  1
  In  In29  1  0.75289764  0.38764192  0.00506782  1
  In  In30  1  0.75289764  0.38764192  0.49493218  1
  In  In31  1  0.57974762  0.17287136  0.65485737  1
  In  In32  1  0.75716377  0.42049747  0.16374627  1
  In  In33  1  0.58121426  0.64152444  0.83865071  1
  In  In34  1  0.24710236  0.61235808  0.99493218  1
  In  In35  1  0.23192113  0.60747848  0.15888552  1
  In  In36  1  0.58535639  0.63503404  0.02962143  1
  In  In37  1  0.58535639  0.63503404  0.47037857  1
  In  In38  1  0.08121426  0.85847556  0.66134929  1
  In  In39  1  0.41878574  0.35847556  0.33865071  1
  In  In40  1  0.92168459  0.62102689  0.55442246  1
  In  In41  1  0.91464361  0.13503404  0.97037857  1
  In  In42  1  0.24283623  0.57950253  0.83625373  1
  In  In43  1  0.73192113  0.89252152  0.34111448  1
  In  In44  1  0.41878574  0.35847556  0.16134929  1
  In  In45  1  0.92025238  0.67287136  0.15485737  1
  In  In46  1  0.74710236  0.88764192  0.50506782  1
  In  In47  1  0.42269644  0.87192474  0.75000000  1
  In  In48  1  0.76807887  0.39252152  0.84111448  1
  In  In49  1  0.91077842  0.13101609  0.75000000  1
  In  In50  1  0.25289764  0.11235808  0.00506782  1
  In  In51  1  0.57730356  0.12807526  0.25000000  1
  In  In52  1  0.73192113  0.89252152  0.15888552  1
  In  In53  1  0.74710236  0.88764192  0.99493218  1
  In  In54  1  0.24283623  0.57950253  0.66374627  1
  In  In55  1  0.91464361  0.13503404  0.52962143  1
  In  In56  1  0.92168459  0.62102689  0.94557754  1
  In  In57  1  0.08535639  0.86496596  0.47037857  1
  In  In58  1  0.08922158  0.86898391  0.25000000  1
  In  In59  1  0.92025238  0.67287136  0.34514263  1
  In  In60  1  0.08121426  0.85847556  0.83865071  1
  In  In61  1  0.92269644  0.62807526  0.75000000  1
  In  In62  1  0.08535639  0.86496596  0.02962143  1
  In  In63  1  0.24710236  0.61235808  0.50506782  1
  Cl  Cl64  1  0.39668099  0.35973856  0.65184343  1
  Cl  Cl65  1  0.39347003  0.66489792  0.25000000  1
  Cl  Cl66  1  0.36568671  0.76573969  0.82307327  1
  Cl  Cl67  1  0.78797748  0.59950504  0.25000000  1
  Cl  Cl68  1  0.91585886  0.37430969  0.55303999  1
  Cl  Cl69  1  0.83929715  0.27460778  0.43063631  1
  Cl  Cl70  1  0.59067512  0.40061824  0.06375190  1
  Cl  Cl71  1  0.89668099  0.14026144  0.65184343  1
  Cl  Cl72  1  0.83258679  0.75875626  0.45586196  1
  Cl  Cl73  1  0.16741321  0.24124374  0.54413804  1
  Cl  Cl74  1  0.33929715  0.22539222  0.06936369  1
  Cl  Cl75  1  0.67824193  0.50576986  0.94020900  1
  Cl  Cl76  1  0.13431329  0.26573969  0.17692673  1
  Cl  Cl77  1  0.17824193  0.99423014  0.55979100  1
  Cl  Cl78  1  0.41585886  0.12569031  0.94696001  1
  Cl  Cl79  1  0.66257198  0.01653657  0.55554991  1
  Cl  Cl80  1  0.10652997  0.16489792  0.75000000  1
  Cl  Cl81  1  0.16257198  0.48346343  0.55554991  1
  Cl  Cl82  1  0.33742802  0.98346343  0.44445009  1
  Cl  Cl83  1  0.16070285  0.72539222  0.56936369  1
  Cl  Cl84  1  0.28797748  0.90049496  0.25000000  1
  Cl  Cl85  1  0.63431329  0.23426031  0.17692673  1
  Cl  Cl86  1  0.66070285  0.77460778  0.93063631  1
  Cl  Cl87  1  0.10502750  0.70532921  0.75000000  1
  Cl  Cl88  1  0.55818020  0.45793830  0.25000000  1
  Cl  Cl89  1  0.66070285  0.77460778  0.56936369  1
  Cl  Cl90  1  0.75616566  0.04782386  0.25000000  1
  Cl  Cl91  1  0.44181980  0.54206170  0.75000000  1
  Cl  Cl92  1  0.82175807  0.00576986  0.44020900  1
  Cl  Cl93  1  0.16070285  0.72539222  0.93063631  1
  Cl  Cl94  1  0.09067512  0.09938176  0.43624810  1
  Cl  Cl95  1  0.58414114  0.87430969  0.44696001  1
  Cl  Cl96  1  0.16257198  0.48346343  0.94445009  1
  Cl  Cl97  1  0.13431329  0.26573969  0.32307327  1
  Cl  Cl98  1  0.25616566  0.45217614  0.25000000  1
  Cl  Cl99  1  0.10400571  0.69138980  0.25000000  1
  Cl  Cl100  1  0.83742802  0.51653657  0.05554991  1
  Cl  Cl101  1  0.66257198  0.01653657  0.94445009  1
  Cl  Cl102  1  0.41585886  0.12569031  0.55303999  1
  Cl  Cl103  1  0.60502750  0.79467079  0.75000000  1
  Cl  Cl104  1  0.58414114  0.87430969  0.05303999  1
  Cl  Cl105  1  0.67824193  0.50576986  0.55979100  1
  Cl  Cl106  1  0.32175807  0.49423014  0.05979100  1
  Cl  Cl107  1  0.33742802  0.98346343  0.05554991  1
  Cl  Cl108  1  0.01633646  0.48061516  0.32337047  1
  Cl  Cl109  1  0.89668099  0.14026144  0.84815657  1
  Cl  Cl110  1  0.16741321  0.24124374  0.95586196  1
  Cl  Cl111  1  0.89347003  0.83510208  0.25000000  1
  Cl  Cl112  1  0.39599429  0.19138980  0.75000000  1
  Cl  Cl113  1  0.91585886  0.37430969  0.94696001  1
  Cl  Cl114  1  0.24383434  0.95217614  0.75000000  1
  Cl  Cl115  1  0.36568671  0.76573969  0.67692673  1
  Cl  Cl116  1  0.74383434  0.54782386  0.75000000  1
  Cl  Cl117  1  0.63431329  0.23426031  0.32307327  1
  Cl  Cl118  1  0.39497250  0.20532921  0.25000000  1
  Cl  Cl119  1  0.05818020  0.04206170  0.25000000  1
  Cl  Cl120  1  0.60400571  0.80861020  0.25000000  1
  Cl  Cl121  1  0.90932488  0.90061824  0.93624810  1
  Cl  Cl122  1  0.94181980  0.95793830  0.75000000  1
  Cl  Cl123  1  0.66741321  0.25875626  0.54413804  1
  Cl  Cl124  1  0.83929715  0.27460778  0.06936369  1
  Cl  Cl125  1  0.89497250  0.29467079  0.25000000  1
  Cl  Cl126  1  0.08414114  0.62569031  0.44696001  1
  Cl  Cl127  1  0.33929715  0.22539222  0.43063631  1
  Cl  Cl128  1  0.82175807  0.00576986  0.05979100  1
  Cl  Cl129  1  0.10331901  0.85973856  0.34815657  1
  Cl  Cl130  1  0.60652997  0.33510208  0.75000000  1
  Cl  Cl131  1  0.10331901  0.85973856  0.15184343  1
  Cl  Cl132  1  0.33258679  0.74124374  0.45586196  1
  Cl  Cl133  1  0.51633646  0.01938484  0.17662953  1
  Cl  Cl134  1  0.59067512  0.40061824  0.43624810  1
  Cl  Cl135  1  0.71202252  0.09950504  0.75000000  1
  Cl  Cl136  1  0.86568671  0.73426031  0.82307327  1
  Cl  Cl137  1  0.48366354  0.98061516  0.82337047  1
  Cl  Cl138  1  0.40932488  0.59938176  0.56375190  1
  Cl  Cl139  1  0.40932488  0.59938176  0.93624810  1
  Cl  Cl140  1  0.48366354  0.98061516  0.67662953  1
  Cl  Cl141  1  0.83258679  0.75875626  0.04413804  1
  Cl  Cl142  1  0.86568671  0.73426031  0.67692673  1
  Cl  Cl143  1  0.60331901  0.64026144  0.34815657  1
  Cl  Cl144  1  0.51633646  0.01938484  0.32337047  1
  Cl  Cl145  1  0.17824193  0.99423014  0.94020900  1
  Cl  Cl146  1  0.01633646  0.48061516  0.17662953  1
  Cl  Cl147  1  0.83742802  0.51653657  0.44445009  1
  Cl  Cl148  1  0.98366354  0.51938484  0.67662953  1
  Cl  Cl149  1  0.98366354  0.51938484  0.82337047  1
  Cl  Cl150  1  0.08414114  0.62569031  0.05303999  1
  Cl  Cl151  1  0.32175807  0.49423014  0.44020900  1
  Cl  Cl152  1  0.60331901  0.64026144  0.15184343  1
  Cl  Cl153  1  0.33258679  0.74124374  0.04413804  1
  Cl  Cl154  1  0.66741321  0.25875626  0.95586196  1
  Cl  Cl155  1  0.90932488  0.90061824  0.56375190  1
  Cl  Cl156  1  0.39668099  0.35973856  0.84815657  1
  Cl  Cl157  1  0.21202252  0.40049496  0.75000000  1
  Cl  Cl158  1  0.09067512  0.09938176  0.06375190  1
  Cl  Cl159  1  0.89599429  0.30861020  0.75000000  1
