# generated using pymatgen
data_Rb2CrCl4
_symmetry_space_group_name_H-M   'P 1'
_cell_length_a   7.23635585
_cell_length_b   7.23608277
_cell_length_c   8.81940035
_cell_angle_alpha   90.00000000
_cell_angle_beta   113.82786333
_cell_angle_gamma   90.00000000
_symmetry_Int_Tables_number   1
_chemical_formula_structural   Rb2CrCl4
_chemical_formula_sum   'Rb4 Cr2 Cl8'
_cell_volume   422.44603422
_cell_formula_units_Z   2
loop_
 _symmetry_equiv_pos_site_id
 _symmetry_equiv_pos_as_xyz
  1  'x, y, z'
loop_
 _atom_site_type_symbol
 _atom_site_label
 _atom_site_symmetry_multiplicity
 _atom_site_fract_x
 _atom_site_fract_y
 _atom_site_fract_z
 _atom_site_occupancy
  Rb  Rb0  1  0.86342126  0.49971098  0.72103971  1
  Rb  Rb1  1  0.63657874  0.99971098  0.27896029  1
  Rb  Rb2  1  0.36342126  0.00028902  0.72103971  1
  Rb  Rb3  1  0.13657874  0.50028902  0.27896029  1
  Cr  Cr4  1  0.00000000  0.00000000  0.00000000  1
  Cr  Cr5  1  0.50000000  0.50000000  0.00000000  1
  Cl  Cl6  1  0.64867700  0.50019115  0.30305573  1
  Cl  Cl7  1  0.73843221  0.73847218  0.99993238  1
  Cl  Cl8  1  0.85132300  0.00019115  0.69694427  1
  Cl  Cl9  1  0.14867700  0.99980885  0.30305573  1
  Cl  Cl10  1  0.23843221  0.76152782  0.99993238  1
  Cl  Cl11  1  0.26156779  0.26152782  0.00006762  1
  Cl  Cl12  1  0.35132300  0.49980885  0.69694427  1
  Cl  Cl13  1  0.76156779  0.23847218  0.00006762  1
