# generated using pymatgen
data_Ni3Sn2
_symmetry_space_group_name_H-M   'P 1'
_cell_length_a   5.21755254
_cell_length_b   7.12700421
_cell_length_c   8.20788163
_cell_angle_alpha   90.01303355
_cell_angle_beta   89.99902634
_cell_angle_gamma   89.99671247
_symmetry_Int_Tables_number   1
_chemical_formula_structural   Ni3Sn2
_chemical_formula_sum   'Ni12 Sn8'
_cell_volume   305.21432941
_cell_formula_units_Z   4
loop_
 _symmetry_equiv_pos_site_id
 _symmetry_equiv_pos_as_xyz
  1  'x, y, z'
loop_
 _atom_site_type_symbol
 _atom_site_label
 _atom_site_symmetry_multiplicity
 _atom_site_fract_x
 _atom_site_fract_y
 _atom_site_fract_z
 _atom_site_occupancy
  Ni  Ni0  1  0.24999310  0.41090837  0.62544987  1
  Ni  Ni1  1  0.74999090  0.58911864  0.37458930  1
  Ni  Ni2  1  0.49546143  0.73661817  0.62359916  1
  Ni  Ni3  1  0.99550033  0.26331859  0.37638238  1
  Ni  Ni4  1  0.50454908  0.76336629  0.12370675  1
  Ni  Ni5  1  0.99544615  0.76335779  0.12372271  1
  Ni  Ni6  1  0.50451675  0.26331760  0.37636743  1
  Ni  Ni7  1  0.00452239  0.73661387  0.62362638  1
  Ni  Ni8  1  0.49549278  0.23668793  0.87629675  1
  Ni  Ni9  1  0.24999154  0.91086423  0.87440773  1
  Ni  Ni10  1  0.00454498  0.23667267  0.87630629  1
  Ni  Ni11  1  0.75002363  0.08911671  0.12559395  1
  Sn  Sn12  1  0.24999529  0.06117326  0.59703952  1
  Sn  Sn13  1  0.24995017  0.59837287  0.35737368  1
  Sn  Sn14  1  0.74996510  0.40161710  0.64264111  1
  Sn  Sn15  1  0.75000349  0.90154383  0.85742228  1
  Sn  Sn16  1  0.24999760  0.09846882  0.14259793  1
  Sn  Sn17  1  0.25001489  0.56125408  0.90294530  1
  Sn  Sn18  1  0.75000507  0.93878436  0.40290563  1
  Sn  Sn19  1  0.75003534  0.43882481  0.09702587  1
