# generated using pymatgen
data_RbPbF3
_symmetry_space_group_name_H-M   'P 1'
_cell_length_a   9.50160690
_cell_length_b   6.71837084
_cell_length_c   6.88296377
_cell_angle_alpha   59.23147352
_cell_angle_beta   44.13299695
_cell_angle_gamma   45.51720109
_symmetry_Int_Tables_number   1
_chemical_formula_structural   RbPbF3
_chemical_formula_sum   'Rb2 Pb2 F6'
_cell_volume   218.24955613
_cell_formula_units_Z   2
loop_
 _symmetry_equiv_pos_site_id
 _symmetry_equiv_pos_as_xyz
  1  'x, y, z'
loop_
 _atom_site_type_symbol
 _atom_site_label
 _atom_site_symmetry_multiplicity
 _atom_site_fract_x
 _atom_site_fract_y
 _atom_site_fract_z
 _atom_site_occupancy
  Rb  Rb0  1  0.23965698  0.43557773  0.54799402  1
  Rb  Rb1  1  0.73894011  0.43822104  0.54233378  1
  Pb  Pb2  1  0.98432360  0.90444273  0.06258289  1
  Pb  Pb3  1  0.48628470  0.90309941  0.06221130  1
  F  F4  1  0.19551929  0.41818575  0.01011394  1
  F  F5  1  0.83009155  0.78095209  0.54050434  1
  F  F6  1  0.32835988  0.77281623  0.02403056  1
  F  F7  1  0.70306521  0.41699188  0.17923962  1
  F  F8  1  0.64221397  0.95600315  0.21034021  1
  F  F9  1  0.15339570  0.95079998  0.54071034  1
