# generated using pymatgen
data_ZnAu3
_symmetry_space_group_name_H-M   'P 1'
_cell_length_a   5.70803984
_cell_length_b   5.70803950
_cell_length_c   17.43232673
_cell_angle_alpha   99.42288780
_cell_angle_beta   99.42288725
_cell_angle_gamma   89.99999568
_symmetry_Int_Tables_number   1
_chemical_formula_structural   ZnAu3
_chemical_formula_sum   'Zn8 Au24'
_cell_volume   552.54128970
_cell_formula_units_Z   8
loop_
 _symmetry_equiv_pos_site_id
 _symmetry_equiv_pos_as_xyz
  1  'x, y, z'
loop_
 _atom_site_type_symbol
 _atom_site_label
 _atom_site_symmetry_multiplicity
 _atom_site_fract_x
 _atom_site_fract_y
 _atom_site_fract_z
 _atom_site_occupancy
  Zn  Zn0  1  0.80711044  0.05711044  0.11422089  1
  Zn  Zn1  1  0.44288956  0.69288956  0.38577911  1
  Zn  Zn2  1  0.94288956  0.19288956  0.38577911  1
  Zn  Zn3  1  0.19288956  0.94288956  0.88577911  1
  Zn  Zn4  1  0.30711044  0.55711044  0.11422089  1
  Zn  Zn5  1  0.55711044  0.30711044  0.61422089  1
  Zn  Zn6  1  0.69288956  0.44288956  0.88577911  1
  Zn  Zn7  1  0.05711044  0.80711044  0.61422089  1
  Au  Au8  1  0.05977382  0.94022618  0.25000000  1
  Au  Au9  1  0.43466241  0.18466241  0.36932482  1
  Au  Au10  1  0.75000000  0.50103161  0.50000000  1
  Au  Au11  1  0.55977382  0.80977382  0.25000000  1
  Au  Au12  1  0.80977382  0.55977382  0.75000000  1
  Au  Au13  1  0.56533759  0.81533759  0.63067518  1
  Au  Au14  1  0.25000000  0.99896839  0.50000000  1
  Au  Au15  1  0.31533759  0.06533759  0.13067518  1
  Au  Au16  1  0.30977382  0.69022618  0.75000000  1
  Au  Au17  1  0.68466241  0.93466241  0.86932482  1
  Au  Au18  1  0.44022618  0.19022618  0.75000000  1
  Au  Au19  1  0.06533759  0.31533759  0.63067518  1
  Au  Au20  1  0.99896839  0.25000000  0.00000000  1
  Au  Au21  1  0.81533759  0.56533759  0.13067518  1
  Au  Au22  1  0.18466241  0.43466241  0.86932482  1
  Au  Au23  1  0.69022618  0.30977382  0.25000000  1
  Au  Au24  1  0.49896839  0.25000000  0.00000000  1
  Au  Au25  1  0.00103161  0.75000000  1.00000000  1
  Au  Au26  1  0.19022618  0.44022618  0.25000000  1
  Au  Au27  1  0.75000000  0.00103161  0.50000000  1
  Au  Au28  1  0.93466241  0.68466241  0.36932482  1
  Au  Au29  1  0.50103161  0.75000000  1.00000000  1
  Au  Au30  1  0.94022618  0.05977382  0.75000000  1
  Au  Au31  1  0.25000000  0.49896839  0.50000000  1
