# generated using pymatgen
data_Ge3N4
_symmetry_space_group_name_H-M   'P 1'
_cell_length_a   8.27856007
_cell_length_b   8.27855975
_cell_length_c   5.98956167
_cell_angle_alpha   90.00000000
_cell_angle_beta   90.00000000
_cell_angle_gamma   120.00000130
_symmetry_Int_Tables_number   1
_chemical_formula_structural   Ge3N4
_chemical_formula_sum   'Ge12 N16'
_cell_volume   355.49644258
_cell_formula_units_Z   4
loop_
 _symmetry_equiv_pos_site_id
 _symmetry_equiv_pos_as_xyz
  1  'x, y, z'
loop_
 _atom_site_type_symbol
 _atom_site_label
 _atom_site_symmetry_multiplicity
 _atom_site_fract_x
 _atom_site_fract_y
 _atom_site_fract_z
 _atom_site_occupancy
  Ge  Ge0  1  0.16835510  0.25323581  0.02241641  1
  Ge  Ge1  1  0.49001619  0.57184924  0.72826887  1
  Ge  Ge2  1  0.25323581  0.16835510  0.52241641  1
  Ge  Ge3  1  0.08183305  0.50998381  0.72826887  1
  Ge  Ge4  1  0.91816695  0.42815076  0.22826887  1
  Ge  Ge5  1  0.83164490  0.08488071  0.52241641  1
  Ge  Ge6  1  0.74676419  0.91511929  0.02241641  1
  Ge  Ge7  1  0.50998381  0.08183305  0.22826887  1
  Ge  Ge8  1  0.42815076  0.91816695  0.72826887  1
  Ge  Ge9  1  0.91511929  0.74676419  0.52241641  1
  Ge  Ge10  1  0.57184924  0.49001619  0.22826887  1
  Ge  Ge11  1  0.08488071  0.83164490  0.02241641  1
  N  N12  1  0.67998529  0.99917476  0.77010774  1
  N  N13  1  0.00082524  0.68081053  0.77010774  1
  N  N14  1  0.61575301  0.65710669  0.99856513  1
  N  N15  1  0.04135368  0.38424699  0.99856513  1
  N  N16  1  0.32001471  0.31918947  0.27010774  1
  N  N17  1  0.95864632  0.34289331  0.49856513  1
  N  N18  1  0.68081053  0.00082524  0.27010774  1
  N  N19  1  0.00000000  0.00000000  0.01840618  1
  N  N20  1  0.34289331  0.95864632  0.99856513  1
  N  N21  1  0.31918947  0.32001471  0.77010774  1
  N  N22  1  0.99917476  0.67998529  0.27010774  1
  N  N23  1  0.65710669  0.61575301  0.49856513  1
  N  N24  1  0.00000000  0.00000000  0.51840618  1
  N  N25  1  0.66666700  0.33333300  0.17351938  1
  N  N26  1  0.38424699  0.04135368  0.49856513  1
  N  N27  1  0.33333300  0.66666700  0.67351938  1
