# generated using pymatgen
data_Tl5SnF9
_symmetry_space_group_name_H-M   'P 1'
_cell_length_a   6.89907042
_cell_length_b   8.10866917
_cell_length_c   11.43510037
_cell_angle_alpha   90.00000000
_cell_angle_beta   90.00000000
_cell_angle_gamma   90.00000000
_symmetry_Int_Tables_number   1
_chemical_formula_structural   Tl5SnF9
_chemical_formula_sum   'Tl10 Sn2 F18'
_cell_volume   639.70558234
_cell_formula_units_Z   2
loop_
 _symmetry_equiv_pos_site_id
 _symmetry_equiv_pos_as_xyz
  1  'x, y, z'
loop_
 _atom_site_type_symbol
 _atom_site_label
 _atom_site_symmetry_multiplicity
 _atom_site_fract_x
 _atom_site_fract_y
 _atom_site_fract_z
 _atom_site_occupancy
  Tl  Tl0  1  0.46670539  0.27369146  0.33218767  1
  Tl  Tl1  1  0.54163859  0.27554896  0.66956251  1
  Tl  Tl2  1  0.03329461  0.72630854  0.83218767  1
  Tl  Tl3  1  0.95836141  0.72445104  0.16956251  1
  Tl  Tl4  1  0.54163859  0.72445104  0.66956251  1
  Tl  Tl5  1  0.46670539  0.72630854  0.33218767  1
  Tl  Tl6  1  0.95836141  0.27554896  0.16956251  1
  Tl  Tl7  1  0.03329461  0.27369146  0.83218767  1
  Tl  Tl8  1  0.45689474  0.50000000  0.01032731  1
  Tl  Tl9  1  0.04310526  0.50000000  0.51032731  1
  Sn  Sn10  1  0.50129366  0.00000000  0.99974416  1
  Sn  Sn11  1  0.99870634  -0.00000000  0.49974416  1
  F  F12  1  0.31779655  0.17810622  0.05449668  1
  F  F13  1  0.68101337  0.18070251  0.94608765  1
  F  F14  1  0.18220345  0.82189378  0.55449668  1
  F  F15  1  0.81898663  0.81929749  0.44608765  1
  F  F16  1  0.68101337  0.81929749  0.94608765  1
  F  F17  1  0.31779655  0.82189378  0.05449668  1
  F  F18  1  0.81898663  0.18070251  0.44608765  1
  F  F19  1  0.18220345  0.17810622  0.55449668  1
  F  F20  1  0.48598410  0.50000000  0.50105777  1
  F  F21  1  0.01401590  0.50000000  0.00105777  1
  F  F22  1  0.31434038  0.50000000  0.77485658  1
  F  F23  1  0.67998769  0.50000000  0.22269097  1
  F  F24  1  0.18565962  0.50000000  0.27485658  1
  F  F25  1  0.82001231  0.50000000  0.72269097  1
  F  F26  1  0.62999456  0.00000000  0.15630939  1
  F  F27  1  0.37008120  0.00000000  0.84334479  1
  F  F28  1  0.87000544  -0.00000000  0.65630939  1
  F  F29  1  0.12991880  -0.00000000  0.34334479  1
