# generated using pymatgen
data_Nd2Zr8O19
_symmetry_space_group_name_H-M   'P 1'
_cell_length_a   3.58499262
_cell_length_b   36.89539917
_cell_length_c   35.16839196
_cell_angle_alpha   5.23934531
_cell_angle_beta   59.32740827
_cell_angle_gamma   60.90536997
_symmetry_Int_Tables_number   1
_chemical_formula_structural   Nd2Zr8O19
_chemical_formula_sum   'Nd2 Zr8 O19'
_cell_volume   351.06607561
_cell_formula_units_Z   1
loop_
 _symmetry_equiv_pos_site_id
 _symmetry_equiv_pos_as_xyz
  1  'x, y, z'
loop_
 _atom_site_type_symbol
 _atom_site_label
 _atom_site_symmetry_multiplicity
 _atom_site_fract_x
 _atom_site_fract_y
 _atom_site_fract_z
 _atom_site_occupancy
  Nd  Nd0  1  0.04582500  0.03337474  0.95816005  1
  Nd  Nd1  1  0.93455196  0.04530274  0.06746935  1
  Zr  Zr2  1  0.93987062  0.14669954  0.06558996  1
  Zr  Zr3  1  0.96846627  0.36949611  0.03712238  1
  Zr  Zr4  1  0.95301264  0.25816714  0.05129062  1
  Zr  Zr5  1  0.98276683  0.48198634  0.02154292  1
  Zr  Zr6  1  0.01339647  0.70621071  0.99175110  1
  Zr  Zr7  1  0.99696021  0.59447647  0.00607340  1
  Zr  Zr8  1  0.02628481  0.81850092  0.97687085  1
  Zr  Zr9  1  0.04080870  0.92897339  0.96377321  1
  O  O10  1  0.22626526  0.97685354  0.27792008  1
  O  O11  1  0.20605682  0.06216082  0.29628675  1
  O  O12  1  0.23747893  0.18599945  0.26647879  1
  O  O13  1  0.25143518  0.29719962  0.25255911  1
  O  O14  1  0.25651365  0.40139800  0.24762690  1
  O  O15  1  0.29075491  0.52965488  0.21278999  1
  O  O16  1  0.27740553  0.61911031  0.22612074  1
  O  O17  1  0.81458589  0.14854391  0.68930762  1
  O  O18  1  0.32230271  0.75443988  0.18190232  1
  O  O19  1  0.80132108  0.23787794  0.70263229  1
  O  O20  1  0.78592530  0.32929578  0.71322827  1
  O  O21  1  0.16055774  0.82645494  0.34092619  1
  O  O22  1  0.72721847  0.37997914  0.77405418  1
  O  O23  1  0.69496770  0.45196939  0.80902353  1
  O  O24  1  0.73658954  0.58661919  0.76571264  1
  O  O25  1  0.73833785  0.68652992  0.76580948  1
  O  O26  1  0.75653142  0.80069515  0.74815543  1
  O  O27  1  0.78060959  0.91951885  0.72486880  1
  O  O28  1  0.77696093  0.01790419  0.72739307  1
