# generated using pymatgen
data_Tl9SbSe6
_symmetry_space_group_name_H-M   'P 1'
_cell_length_a   8.52922168
_cell_length_b   8.52652340
_cell_length_c   9.03147083
_cell_angle_alpha   118.18397618
_cell_angle_beta   118.17427198
_cell_angle_gamma   89.98669311
_symmetry_Int_Tables_number   1
_chemical_formula_structural   Tl9SbSe6
_chemical_formula_sum   'Tl9 Sb1 Se6'
_cell_volume   488.91649018
_cell_formula_units_Z   1
loop_
 _symmetry_equiv_pos_site_id
 _symmetry_equiv_pos_as_xyz
  1  'x, y, z'
loop_
 _atom_site_type_symbol
 _atom_site_label
 _atom_site_symmetry_multiplicity
 _atom_site_fract_x
 _atom_site_fract_y
 _atom_site_fract_z
 _atom_site_occupancy
  Tl  Tl0  1  0.99502896  0.50972020  0.30492016  1
  Tl  Tl1  1  0.20483262  0.00496970  0.69486106  1
  Tl  Tl2  1  0.00000000  0.00000000  0.00000000  1
  Tl  Tl3  1  0.30976328  0.79522266  0.30487591  1
  Tl  Tl4  1  0.49022512  0.69006603  0.69495414  1
  Tl  Tl5  1  0.50977488  0.30993397  0.30504586  1
  Tl  Tl6  1  0.69023672  0.20477734  0.69512409  1
  Tl  Tl7  1  0.79516738  0.99503030  0.30513894  1
  Tl  Tl8  1  0.00497104  0.49027980  0.69507984  1
  Sb  Sb9  1  0.50000000  0.50000000  0.00000000  1
  Se  Se10  1  0.28119487  0.28106619  0.56240163  1
  Se  Se11  1  0.18347657  0.35422938  0.00011356  1
  Se  Se12  1  0.35423934  0.81670286  0.00004209  1
  Se  Se13  1  0.71880513  0.71893381  0.43759837  1
  Se  Se14  1  0.64576066  0.18329714  0.99995791  1
  Se  Se15  1  0.81652343  0.64577062  0.99988644  1
