# generated using pymatgen
data_CsPbCl3
_symmetry_space_group_name_H-M   'P 1'
_cell_length_a   5.76365402
_cell_length_b   11.43859402
_cell_length_c   8.08559077
_cell_angle_alpha   44.98074627
_cell_angle_beta   90.00000000
_cell_angle_gamma   90.00000000
_symmetry_Int_Tables_number   1
_chemical_formula_structural   CsPbCl3
_chemical_formula_sum   'Cs2 Pb2 Cl6'
_cell_volume   376.80904449
_cell_formula_units_Z   2
loop_
 _symmetry_equiv_pos_site_id
 _symmetry_equiv_pos_as_xyz
  1  'x, y, z'
loop_
 _atom_site_type_symbol
 _atom_site_label
 _atom_site_symmetry_multiplicity
 _atom_site_fract_x
 _atom_site_fract_y
 _atom_site_fract_z
 _atom_site_occupancy
  Cs  Cs0  1  0.50000000  0.50097857  0.50000000  1
  Cs  Cs1  1  0.50000000  0.00040896  0.50000000  1
  Pb  Pb2  1  0.00000000  0.99704440  -0.00159278  1
  Pb  Pb3  1  0.00000000  0.49545162  0.00159278  1
  Cl  Cl4  1  0.00000000  0.20288515  0.08283161  1
  Cl  Cl5  1  0.50000000  0.47267212  0.00010320  1
  Cl  Cl6  1  0.50000000  0.97277532  0.99989680  1
  Cl  Cl7  1  0.00000000  0.29101823  0.50000000  1
  Cl  Cl8  1  0.00000000  0.70904886  0.50000000  1
  Cl  Cl9  1  0.00000000  0.78571676  0.91716839  1
