# generated using pymatgen
data_Li3Bi3(PO4)4
_symmetry_space_group_name_H-M   'P 1'
_cell_length_a   6.74593747
_cell_length_b   9.60498399
_cell_length_c   10.98688236
_cell_angle_alpha   92.25631390
_cell_angle_beta   90.00000000
_cell_angle_gamma   69.44119174
_symmetry_Int_Tables_number   1
_chemical_formula_structural   Li3Bi3(PO4)4
_chemical_formula_sum   'Li6 Bi6 P8 O32'
_cell_volume   665.96264898
_cell_formula_units_Z   2
loop_
 _symmetry_equiv_pos_site_id
 _symmetry_equiv_pos_as_xyz
  1  'x, y, z'
loop_
 _atom_site_type_symbol
 _atom_site_label
 _atom_site_symmetry_multiplicity
 _atom_site_fract_x
 _atom_site_fract_y
 _atom_site_fract_z
 _atom_site_occupancy
  Li  Li0  1  0.57148581  0.68844022  0.73796852  1
  Li  Li1  1  0.74007398  0.68844022  0.23796852  1
  Li  Li2  1  0.50000000  0.50000000  0.50000000  1
  Li  Li3  1  0.00000000  0.50000000  0.00000000  1
  Li  Li4  1  0.25992602  0.31155978  0.76203148  1
  Li  Li5  1  0.42851419  0.31155978  0.26203148  1
  Bi  Bi6  1  0.32278234  0.72181576  0.99079177  1
  Bi  Bi7  1  0.95540190  0.72181576  0.49079177  1
  Bi  Bi8  1  0.04459810  0.27818424  0.50920823  1
  Bi  Bi9  1  0.67721766  0.27818424  0.00920823  1
  Bi  Bi10  1  0.64371628  0.00000000  0.75000000  1
  Bi  Bi11  1  0.35628372  0.00000000  0.25000000  1
  P  P12  1  0.75629075  0.86762044  0.00630510  1
  P  P13  1  0.37608882  0.86762044  0.50630510  1
  P  P14  1  0.13438638  0.61705426  0.74185097  1
  P  P15  1  0.24855936  0.61705426  0.24185097  1
  P  P16  1  0.75144064  0.38294574  0.75814903  1
  P  P17  1  0.86561362  0.38294574  0.25814903  1
  P  P18  1  0.62391118  0.13237956  0.49369490  1
  P  P19  1  0.24370925  0.13237956  0.99369490  1
  O  O20  1  0.77539510  0.01819195  0.96858755  1
  O  O21  1  0.20641195  0.01819195  0.46858755  1
  O  O22  1  0.47574011  0.86764128  0.63382948  1
  O  O23  1  0.61940230  0.82524634  0.90561051  1
  O  O24  1  0.65661860  0.86764128  0.13382948  1
  O  O25  1  0.55535137  0.82524634  0.40561051  1
  O  O26  1  0.98126595  0.74893480  0.00553848  1
  O  O27  1  0.91062588  0.73835088  0.71377524  1
  O  O28  1  0.26979925  0.74893480  0.50553848  1
  O  O29  1  0.27978212  0.70690023  0.78164131  1
  O  O30  1  0.35102324  0.73835088  0.21377524  1
  O  O31  1  0.01331666  0.70690023  0.28164131  1
  O  O32  1  0.72112463  0.47319489  0.88445318  1
  O  O33  1  0.65277938  0.49204165  0.65806061  1
  O  O34  1  0.80568048  0.47319489  0.38445318  1
  O  O35  1  0.85517797  0.49204165  0.15806061  1
  O  O36  1  0.14482203  0.50795835  0.84193939  1
  O  O37  1  0.19431952  0.52680511  0.61554682  1
  O  O38  1  0.34722062  0.50795835  0.34193939  1
  O  O39  1  0.27887537  0.52680511  0.11554682  1
  O  O40  1  0.98668334  0.29309977  0.71835869  1
  O  O41  1  0.64897676  0.26164912  0.78622476  1
  O  O42  1  0.72021788  0.29309977  0.21835869  1
  O  O43  1  0.73020075  0.25106520  0.49446152  1
  O  O44  1  0.08937412  0.26164912  0.28622476  1
  O  O45  1  0.01873405  0.25106520  0.99446152  1
  O  O46  1  0.44464863  0.17475366  0.59438949  1
  O  O47  1  0.34338140  0.13235872  0.86617052  1
  O  O48  1  0.38059770  0.17475366  0.09438949  1
  O  O49  1  0.52425989  0.13235872  0.36617052  1
  O  O50  1  0.79358805  0.98180805  0.53141245  1
  O  O51  1  0.22460490  0.98180805  0.03141245  1
