# generated using pymatgen
data_Y5(ReO6)2
_symmetry_space_group_name_H-M   'P 1'
_cell_length_a   5.68993351
_cell_length_b   6.86129005
_cell_length_c   7.56995842
_cell_angle_alpha   73.75952968
_cell_angle_beta   90.00000000
_cell_angle_gamma   65.50333456
_symmetry_Int_Tables_number   1
_chemical_formula_structural   Y5(ReO6)2
_chemical_formula_sum   'Y5 Re2 O12'
_cell_volume   255.91522542
_cell_formula_units_Z   1
loop_
 _symmetry_equiv_pos_site_id
 _symmetry_equiv_pos_as_xyz
  1  'x, y, z'
loop_
 _atom_site_type_symbol
 _atom_site_label
 _atom_site_symmetry_multiplicity
 _atom_site_fract_x
 _atom_site_fract_y
 _atom_site_fract_z
 _atom_site_occupancy
  Y  Y0  1  0.68622861  0.62754278  0.82524951  1
  Y  Y1  1  0.69656005  0.60688089  0.35913438  1
  Y  Y2  1  0.30343995  0.39311911  0.64086562  1
  Y  Y3  1  0.31377139  0.37245722  0.17475049  1
  Y  Y4  1  0.00000000  0.00000000  0.50000000  1
  Re  Re5  1  0.21433330  1.00000000  0.00000000  1
  Re  Re6  1  0.78566670  0.00000000  1.00000000  1
  O  O7  1  0.00070499  0.99859002  0.79393828  1
  O  O8  1  0.50094406  0.99811089  0.17683079  1
  O  O9  1  0.40595767  0.69224499  0.57391908  1
  O  O10  1  0.90179734  0.69224499  0.57391908  1
  O  O11  1  0.91084653  0.67052890  0.08377786  1
  O  O12  1  0.41862456  0.67052890  0.08377786  1
  O  O13  1  0.08915347  0.32947110  0.91622214  1
  O  O14  1  0.58137544  0.32947110  0.91622214  1
  O  O15  1  0.09820266  0.30775501  0.42608092  1
  O  O16  1  0.59404233  0.30775501  0.42608092  1
  O  O17  1  0.49905594  0.00188911  0.82316921  1
  O  O18  1  0.99929501  0.00140998  0.20606172  1
