# generated using pymatgen
data_Tl9BiSe6
_symmetry_space_group_name_H-M   'P 1'
_cell_length_a   8.59033911
_cell_length_b   8.58828042
_cell_length_c   8.99192483
_cell_angle_alpha   118.50907056
_cell_angle_beta   118.49901458
_cell_angle_gamma   89.99680330
_symmetry_Int_Tables_number   1
_chemical_formula_structural   Tl9BiSe6
_chemical_formula_sum   'Tl9 Bi1 Se6'
_cell_volume   489.53811624
_cell_formula_units_Z   1
loop_
 _symmetry_equiv_pos_site_id
 _symmetry_equiv_pos_as_xyz
  1  'x, y, z'
loop_
 _atom_site_type_symbol
 _atom_site_label
 _atom_site_symmetry_multiplicity
 _atom_site_fract_x
 _atom_site_fract_y
 _atom_site_fract_z
 _atom_site_occupancy
  Tl  Tl0  1  -0.00008968  0.50672719  0.30621866  1
  Tl  Tl1  1  0.20058313  0.00021961  0.69363285  1
  Tl  Tl2  1  0.00000000  0.00000000  0.00000000  1
  Tl  Tl3  1  0.30623580  0.79946711  0.30611419  1
  Tl  Tl4  1  0.49335781  0.69369022  0.69373318  1
  Tl  Tl5  1  0.50664219  0.30630978  0.30626682  1
  Tl  Tl6  1  0.69376420  0.20053289  0.69388581  1
  Tl  Tl7  1  0.79941687  -0.00021961  0.30636715  1
  Tl  Tl8  1  0.00008968  0.49327281  0.69378134  1
  Bi  Bi9  1  0.50000000  0.50000000  0.00000000  1
  Se  Se10  1  0.27272748  0.27266002  0.54550947  1
  Se  Se11  1  0.18011598  0.35149578  0.00016245  1
  Se  Se12  1  0.35144428  0.82001938  0.00001852  1
  Se  Se13  1  0.72727252  0.72733998  0.45449053  1
  Se  Se14  1  0.64855572  0.17998062  -0.00001852  1
  Se  Se15  1  0.81988402  0.64850422  0.99983755  1
