# generated using pymatgen
data_Mg4Sb2O9
_symmetry_space_group_name_H-M   'P 1'
_cell_length_a   5.63500971
_cell_length_b   16.80430538
_cell_length_c   15.11328865
_cell_angle_alpha   17.92686990
_cell_angle_beta   50.94323750
_cell_angle_gamma   55.68463428
_symmetry_Int_Tables_number   1
_chemical_formula_structural   Mg4Sb2O9
_chemical_formula_sum   'Mg8 Sb4 O18'
_cell_volume   338.21051157
_cell_formula_units_Z   2
loop_
 _symmetry_equiv_pos_site_id
 _symmetry_equiv_pos_as_xyz
  1  'x, y, z'
loop_
 _atom_site_type_symbol
 _atom_site_label
 _atom_site_symmetry_multiplicity
 _atom_site_fract_x
 _atom_site_fract_y
 _atom_site_fract_z
 _atom_site_occupancy
  Mg  Mg0  1  0.35639687  0.19718580  0.38239795  1
  Mg  Mg1  1  0.13126482  0.61303057  0.15708080  1
  Mg  Mg2  1  0.35141289  0.56103523  0.34353020  1
  Mg  Mg3  1  0.63603435  0.11830023  0.64928315  1
  Mg  Mg4  1  0.36396565  0.88169977  0.35071685  1
  Mg  Mg5  1  0.64858711  0.43896477  0.65646980  1
  Mg  Mg6  1  0.86873518  0.38696943  0.84291920  1
  Mg  Mg7  1  0.64360313  0.80281420  0.61760205  1
  Sb  Sb8  1  0.17640486  0.28759194  0.13894631  1
  Sb  Sb9  1  0.13709660  0.95013142  0.15594710  1
  Sb  Sb10  1  0.86290340  0.04986858  0.84405290  1
  Sb  Sb11  1  0.82359514  0.71240806  0.86105369  1
  O  O12  1  0.76095698  0.11011727  0.05547531  1
  O  O13  1  0.54080655  0.17016096  0.23325264  1
  O  O14  1  0.04301210  0.28079381  0.45608469  1
  O  O15  1  0.77529817  0.44146016  0.05565792  1
  O  O16  1  0.56738731  0.49099231  0.23725616  1
  O  O17  1  0.04691350  0.63923626  0.42858234  1
  O  O18  1  0.94373977  0.04338962  0.55267072  1
  O  O19  1  0.44306387  0.18125925  0.76082711  1
  O  O20  1  0.75190361  0.79432330  0.03961993  1
  O  O21  1  0.24809639  0.20567670  0.96038007  1
  O  O22  1  0.55693613  0.81874075  0.23917289  1
  O  O23  1  0.05626023  0.95661038  0.44732928  1
  O  O24  1  0.95308650  0.36076374  0.57141766  1
  O  O25  1  0.43261269  0.50900769  0.76274384  1
  O  O26  1  0.22470183  0.55853984  0.94434208  1
  O  O27  1  0.95698790  0.71920619  0.54391531  1
  O  O28  1  0.45919345  0.82983904  0.76674736  1
  O  O29  1  0.23904302  0.88988273  0.94452469  1
