# generated using pymatgen
data_Li7IN2
_symmetry_space_group_name_H-M   'P 1'
_cell_length_a   7.34559025
_cell_length_b   7.38280997
_cell_length_c   7.38232464
_cell_angle_alpha   59.94295370
_cell_angle_beta   60.19845373
_cell_angle_gamma   60.22135536
_symmetry_Int_Tables_number   1
_chemical_formula_structural   Li7IN2
_chemical_formula_sum   'Li14 I2 N4'
_cell_volume   283.86272036
_cell_formula_units_Z   2
loop_
 _symmetry_equiv_pos_site_id
 _symmetry_equiv_pos_as_xyz
  1  'x, y, z'
loop_
 _atom_site_type_symbol
 _atom_site_label
 _atom_site_symmetry_multiplicity
 _atom_site_fract_x
 _atom_site_fract_y
 _atom_site_fract_z
 _atom_site_occupancy
  Li  Li0  1  0.00398112  0.01103644  0.00993192  1
  Li  Li1  1  0.08155640  0.42665335  0.06225480  1
  Li  Li2  1  0.07340572  0.07004452  0.42661326  1
  Li  Li3  1  0.43712122  0.06173069  0.06889587  1
  Li  Li4  1  0.07463814  0.42216533  0.42201092  1
  Li  Li5  1  0.42459972  0.07623762  0.42074113  1
  Li  Li6  1  0.42478817  0.41928737  0.07768850  1
  Li  Li7  1  0.21148319  0.78602478  0.21766978  1
  Li  Li8  1  0.21673143  0.21348708  0.78523407  1
  Li  Li9  1  0.78952506  0.21786816  0.21094643  1
  Li  Li10  1  0.29042747  0.79692070  0.79738721  1
  Li  Li11  1  0.79010714  0.27023604  0.78976180  1
  Li  Li12  1  0.79131579  0.78942275  0.27071892  1
  Li  Li13  1  0.91680461  0.87859608  0.87934511  1
  I  I14  1  0.49856612  0.49316514  0.49327526  1
  I  I15  1  0.74217282  0.72810603  0.72831964  1
  N  N16  1  0.12534508  0.11904108  0.11835975  1
  N  N17  1  0.11481155  0.10960811  0.64916583  1
  N  N18  1  0.11542560  0.64886902  0.10948395  1
  N  N19  1  0.65139365  0.11169971  0.11239584  1
