# generated using pymatgen
data_Rb14Si6Ge4O17
_symmetry_space_group_name_H-M   'P 1'
_cell_length_a   8.01408791
_cell_length_b   14.74205847
_cell_length_c   33.08476166
_cell_angle_alpha   102.21766098
_cell_angle_beta   90.00000000
_cell_angle_gamma   90.00000000
_symmetry_Int_Tables_number   1
_chemical_formula_structural   Rb14Si6Ge4O17
_chemical_formula_sum   'Rb56 Si24 Ge16 O68'
_cell_volume   3820.24023229
_cell_formula_units_Z   4
loop_
 _symmetry_equiv_pos_site_id
 _symmetry_equiv_pos_as_xyz
  1  'x, y, z'
loop_
 _atom_site_type_symbol
 _atom_site_label
 _atom_site_symmetry_multiplicity
 _atom_site_fract_x
 _atom_site_fract_y
 _atom_site_fract_z
 _atom_site_occupancy
  Rb  Rb0  1  0.48553338  0.95146409  0.10840231  1
  Rb  Rb1  1  0.13789733  0.29906115  0.36014493  1
  Rb  Rb2  1  0.13516127  0.64366469  0.52881742  1
  Rb  Rb3  1  0.55283697  0.44704674  0.11106214  1
  Rb  Rb4  1  0.05243157  0.79558331  0.24258899  1
  Rb  Rb5  1  0.98553338  0.54853591  0.39159769  1
  Rb  Rb6  1  0.05153130  0.32067640  0.11693814  1
  Rb  Rb7  1  0.98980687  0.29436692  0.24212952  1
  Rb  Rb8  1  0.36352416  0.07374227  0.78467929  1
  Rb  Rb9  1  0.86210267  0.70093885  0.63985507  1
  Rb  Rb10  1  0.51446662  0.04853591  0.89159769  1
  Rb  Rb11  1  0.54237982  0.94946441  0.43269731  1
  Rb  Rb12  1  0.95762018  0.44946441  0.93269731  1
  Rb  Rb13  1  0.94846870  0.67932360  0.88306186  1
  Rb  Rb14  1  0.46896542  0.67782589  0.37058068  1
  Rb  Rb15  1  0.44846870  0.82067640  0.61693814  1
  Rb  Rb16  1  0.55153130  0.17932360  0.38306186  1
  Rb  Rb17  1  0.94756843  0.20441669  0.75741101  1
  Rb  Rb18  1  0.44716303  0.55295326  0.88893786  1
  Rb  Rb19  1  0.01154470  0.00817899  0.06725705  1
  Rb  Rb20  1  0.48845530  0.50817899  0.56725705  1
  Rb  Rb21  1  0.48980687  0.20563308  0.25787048  1
  Rb  Rb22  1  0.53103458  0.32217411  0.62941932  1
  Rb  Rb23  1  0.04237982  0.55053559  0.06730269  1
  Rb  Rb24  1  0.09751707  0.92134848  0.71269749  1
  Rb  Rb25  1  0.13647584  0.57374227  0.28467929  1
  Rb  Rb26  1  0.90116273  0.79099844  0.35508248  1
  Rb  Rb27  1  0.63647584  0.92625773  0.21532071  1
  Rb  Rb28  1  0.09883727  0.20900156  0.64491752  1
  Rb  Rb29  1  0.36483873  0.14366469  0.02881742  1
  Rb  Rb30  1  0.51019313  0.79436692  0.74212952  1
  Rb  Rb31  1  0.40116273  0.70900156  0.14491752  1
  Rb  Rb32  1  0.59883727  0.29099844  0.85508248  1
  Rb  Rb33  1  0.86951004  0.12406565  0.53382144  1
  Rb  Rb34  1  0.01019313  0.70563308  0.75787048  1
  Rb  Rb35  1  0.86483873  0.35633531  0.47118258  1
  Rb  Rb36  1  0.86352416  0.42625773  0.71532071  1
  Rb  Rb37  1  0.45762018  0.05053559  0.56730269  1
  Rb  Rb38  1  0.98845530  0.99182101  0.93274295  1
  Rb  Rb39  1  0.55243157  0.70441669  0.25741101  1
  Rb  Rb40  1  0.13048996  0.87593435  0.46617856  1
  Rb  Rb41  1  0.90248293  0.07865152  0.28730251  1
  Rb  Rb42  1  0.51154470  0.49182101  0.43274295  1
  Rb  Rb43  1  0.59751707  0.57865152  0.78730251  1
  Rb  Rb44  1  0.01446662  0.45146409  0.60840231  1
  Rb  Rb45  1  0.94716303  0.94704674  0.61106214  1
  Rb  Rb46  1  0.05283697  0.05295326  0.38893786  1
  Rb  Rb47  1  0.36951004  0.37593435  0.96617856  1
  Rb  Rb48  1  0.63048996  0.62406565  0.03382144  1
  Rb  Rb49  1  0.63789733  0.20093885  0.13985507  1
  Rb  Rb50  1  0.40248293  0.42134848  0.21269749  1
  Rb  Rb51  1  0.63516127  0.85633531  0.97118258  1
  Rb  Rb52  1  0.36210267  0.79906115  0.86014493  1
  Rb  Rb53  1  0.44756843  0.29558331  0.74258899  1
  Rb  Rb54  1  0.96896542  0.82217411  0.12941932  1
  Rb  Rb55  1  0.03103458  0.17782589  0.87058068  1
  Si  Si56  1  0.14235775  0.56070798  0.17400109  1
  Si  Si57  1  0.35764225  0.06070798  0.67400109  1
  Si  Si58  1  0.10380434  0.93535517  0.82391402  1
  Si  Si59  1  0.60380434  0.56464483  0.67608598  1
  Si  Si60  1  0.77246267  0.01338478  0.79810251  1
  Si  Si61  1  0.26168629  0.64672573  0.65449227  1
  Si  Si62  1  0.85764225  0.43929202  0.82599891  1
  Si  Si63  1  0.70684951  0.14522839  0.65977099  1
  Si  Si64  1  0.72753733  0.51338478  0.29810251  1
  Si  Si65  1  0.68226162  0.97431365  0.69908719  1
  Si  Si66  1  0.39619566  0.43535517  0.32391402  1
  Si  Si67  1  0.73831371  0.35327427  0.34550773  1
  Si  Si68  1  0.81773838  0.47431365  0.19908719  1
  Si  Si69  1  0.79315049  0.64522839  0.15977099  1
  Si  Si70  1  0.31773838  0.02568635  0.30091281  1
  Si  Si71  1  0.76168629  0.85327427  0.84550773  1
  Si  Si72  1  0.18226162  0.52568635  0.80091281  1
  Si  Si73  1  0.29315049  0.85477161  0.34022901  1
  Si  Si74  1  0.27246267  0.48661522  0.70189749  1
  Si  Si75  1  0.89619566  0.06464483  0.17608598  1
  Si  Si76  1  0.23831371  0.14672573  0.15449227  1
  Si  Si77  1  0.64235775  0.93929202  0.32599891  1
  Si  Si78  1  0.20684951  0.35477161  0.84022901  1
  Si  Si79  1  0.22753733  0.98661522  0.20189749  1
  Ge  Ge80  1  0.71245569  0.67728170  0.52601811  1
  Ge  Ge81  1  0.23301010  0.64731426  0.97854016  1
  Ge  Ge82  1  0.52444411  0.24742440  0.50839278  1
  Ge  Ge83  1  0.21245569  0.82271830  0.97398189  1
  Ge  Ge84  1  0.26429338  0.77438268  0.04469989  1
  Ge  Ge85  1  0.23570662  0.27438268  0.54469989  1
  Ge  Ge86  1  0.73301010  0.85268574  0.52145984  1
  Ge  Ge87  1  0.76429338  0.72561732  0.45530011  1
  Ge  Ge88  1  0.97555589  0.74742440  0.00839278  1
  Ge  Ge89  1  0.02444411  0.25257560  0.99160722  1
  Ge  Ge90  1  0.28754431  0.32271830  0.47398189  1
  Ge  Ge91  1  0.26698990  0.14731426  0.47854016  1
  Ge  Ge92  1  0.73570662  0.22561732  0.95530011  1
  Ge  Ge93  1  0.78754431  0.17728170  0.02601811  1
  Ge  Ge94  1  0.76698990  0.35268574  0.02145984  1
  Ge  Ge95  1  0.47555589  0.75257560  0.49160722  1
  O  O96  1  0.23469909  0.11610729  0.70919201  1
  O  O97  1  0.49563943  0.13654626  0.66032151  1
  O  O98  1  0.70428434  0.75151017  0.82148594  1
  O  O99  1  0.22791165  0.50089338  0.13256107  1
  O  O100  1  0.22137297  0.87544887  0.78867816  1
  O  O101  1  0.79571566  0.25151017  0.32148594  1
  O  O102  1  0.23868305  0.75318423  0.31504590  1
  O  O103  1  0.72328971  0.97950906  0.74850601  1
  O  O104  1  0.52099432  0.50413415  0.30061442  1
  O  O105  1  0.18609552  0.56634005  0.68004226  1
  O  O106  1  0.30490449  0.50206759  0.36276122  1
  O  O107  1  0.27671029  0.02049094  0.25149399  1
  O  O108  1  0.77208835  0.49910662  0.86743893  1
  O  O109  1  0.72137297  0.62455113  0.71132184  1
  O  O110  1  0.24804166  0.62211418  0.82838164  1
  O  O111  1  0.02302168  0.48751839  0.19609998  1
  O  O112  1  0.68609552  0.93365995  0.81995774  1
  O  O113  1  0.27394508  0.38311712  0.88733424  1
  O  O114  1  0.02865699  0.13609740  0.15780751  1
  O  O115  1  0.25195834  0.12211418  0.32838164  1
  O  O116  1  0.73868305  0.74681577  0.18495410  1
  O  O117  1  0.20721468  0.38390733  0.68223034  1
  O  O118  1  0.22328971  0.52049094  0.75149399  1
  O  O119  1  0.73469909  0.38389271  0.79080799  1
  O  O120  1  0.47697832  0.98751839  0.69609998  1
  O  O121  1  0.74804166  0.87788582  0.67161836  1
  O  O122  1  0.76530091  0.88389271  0.29080799  1
  O  O123  1  0.75195834  0.37788582  0.17161836  1
  O  O124  1  0.29278532  0.88390733  0.18223034  1
  O  O125  1  0.47900568  0.49586585  0.69938558  1
  O  O126  1  0.22609920  0.93459049  0.31339061  1
  O  O127  1  0.26131695  0.25318423  0.81504590  1
  O  O128  1  0.70252620  0.88395246  0.89332785  1
  O  O129  1  0.20428434  0.74848983  0.67851406  1
  O  O130  1  0.97134301  0.86390260  0.84219249  1
  O  O131  1  0.72605492  0.61688288  0.11266576  1
  O  O132  1  0.69509551  0.49793241  0.63723878  1
  O  O133  1  0.77390080  0.06540951  0.68660939  1
  O  O134  1  0.99563943  0.36345374  0.83967849  1
  O  O135  1  0.29571566  0.24848983  0.17851406  1
  O  O136  1  0.27208835  0.00089338  0.63256107  1
  O  O137  1  0.00436057  0.63654626  0.16032151  1
  O  O138  1  0.81390448  0.43365995  0.31995774  1
  O  O139  1  0.27390080  0.43459049  0.81339061  1
  O  O140  1  0.31390448  0.06634005  0.18004226  1
  O  O141  1  0.79747380  0.38395246  0.39332785  1
  O  O142  1  0.19509551  0.00206759  0.86276122  1
  O  O143  1  0.20252620  0.61604754  0.60667215  1
  O  O144  1  0.26530091  0.61610729  0.20919201  1
  O  O145  1  0.52865699  0.36390260  0.34219249  1
  O  O146  1  0.76131695  0.24681577  0.68495410  1
  O  O147  1  0.47134301  0.63609740  0.65780751  1
  O  O148  1  0.77394508  0.11688288  0.61266576  1
  O  O149  1  0.72791165  0.99910662  0.36743893  1
  O  O150  1  0.02099432  0.99586585  0.19938558  1
  O  O151  1  0.72609920  0.56540951  0.18660939  1
  O  O152  1  0.29747380  0.11604754  0.10667215  1
  O  O153  1  0.50436057  0.86345374  0.33967849  1
  O  O154  1  0.70721468  0.11609267  0.81776966  1
  O  O155  1  0.77671029  0.47950906  0.24850601  1
  O  O156  1  0.52302168  0.01248161  0.30390002  1
  O  O157  1  0.79278532  0.61609267  0.31776966  1
  O  O158  1  0.77862703  0.12455113  0.21132184  1
  O  O159  1  0.97697832  0.51248161  0.80390002  1
  O  O160  1  0.80490449  0.99793241  0.13723878  1
  O  O161  1  0.97900568  0.00413415  0.80061442  1
  O  O162  1  0.27862703  0.37544887  0.28867816  1
  O  O163  1  0.22605492  0.88311712  0.38733424  1
