# generated using pymatgen
data_Y10U4O27
_symmetry_space_group_name_H-M   'P 1'
_cell_length_a   6.59120208
_cell_length_b   6.55222187
_cell_length_c   13.12394007
_cell_angle_alpha   99.10774434
_cell_angle_beta   99.03935620
_cell_angle_gamma   99.42434667
_symmetry_Int_Tables_number   1
_chemical_formula_structural   Y10U4O27
_chemical_formula_sum   'Y10 U4 O27'
_cell_volume   542.25021853
_cell_formula_units_Z   1
loop_
 _symmetry_equiv_pos_site_id
 _symmetry_equiv_pos_as_xyz
  1  'x, y, z'
loop_
 _atom_site_type_symbol
 _atom_site_label
 _atom_site_symmetry_multiplicity
 _atom_site_fract_x
 _atom_site_fract_y
 _atom_site_fract_z
 _atom_site_occupancy
  Y  Y0  1  0.14715803  0.29936802  0.78939463  1
  Y  Y1  1  0.42717774  0.85580992  0.85813362  1
  Y  Y2  1  0.14779475  0.30410322  0.28703414  1
  Y  Y3  1  0.29675870  0.57791313  0.56987244  1
  Y  Y4  1  0.39399037  0.85663500  0.35204971  1
  Y  Y5  1  0.71270990  0.42519089  0.92822437  1
  Y  Y6  1  0.69744530  0.39316408  0.42258590  1
  Y  Y7  1  0.86536840  0.71170815  0.71748711  1
  Y  Y8  1  0.57659584  0.14845997  0.15137629  1
  Y  Y9  1  0.85436862  0.70236872  0.19963199  1
  U  U10  1  0.01397910  0.01732188  0.50879945  1
  U  U11  1  0.99084244  0.99940396  0.99808129  1
  U  U12  1  0.29778820  0.57281290  0.07383594  1
  U  U13  1  0.57567111  0.14716394  0.65178947  1
  O  O14  1  0.09643717  0.97284219  0.85441531  1
  O  O15  1  0.03947570  0.32379436  0.95704446  1
  O  O16  1  0.05034698  0.93096815  0.35150296  1
  O  O17  1  0.17939657  0.61843482  0.72804186  1
  O  O18  1  0.04595747  0.31134454  0.45938595  1
  O  O19  1  0.32661867  0.92554809  0.52480378  1
  O  O20  1  0.38104745  0.54217304  0.92312990  1
  O  O21  1  0.18143638  0.60965302  0.21697622  1
  O  O22  1  0.26653251  0.24915579  0.62968287  1
  O  O23  1  0.46243142  0.17685201  0.79992455  1
  O  O24  1  0.31345241  0.89253153  0.02793544  1
  O  O25  1  0.41389912  0.55507881  0.41090931  1
  O  O26  1  0.25480165  0.26675210  0.11856586  1
  O  O27  1  0.55076005  0.84844215  0.68975014  1
  O  O28  1  0.44202411  0.16747308  0.30333098  1
  O  O29  1  0.74844263  0.74737503  0.87328931  1
  O  O30  1  0.61493234  0.43122067  0.59332972  1
  O  O31  1  0.69456413  0.09356392  0.98171318  1
  O  O32  1  0.54292613  0.80601966  0.19987221  1
  O  O33  1  0.80994311  0.37023627  0.76501861  1
  O  O34  1  0.59796797  0.46286259  0.08545240  1
  O  O35  1  0.69531494  0.05908308  0.47400208  1
  O  O36  1  0.94185580  0.70786103  0.52641460  1
  O  O37  1  0.82285875  0.41330018  0.27648025  1
  O  O38  1  0.90634490  0.04840155  0.65807650  1
  O  O39  1  0.97195940  0.68385626  0.04435584  1
  O  O40  1  0.91562372  0.03875230  0.15079938  1
