# generated using pymatgen
data_ThCd(MoO4)3
_symmetry_space_group_name_H-M   'P 1'
_cell_length_a   10.05845679
_cell_length_b   10.05845676
_cell_length_c   6.43034815
_cell_angle_alpha   90.00000000
_cell_angle_beta   90.00000000
_cell_angle_gamma   120.00000009
_symmetry_Int_Tables_number   1
_chemical_formula_structural   ThCd(MoO4)3
_chemical_formula_sum   'Th2 Cd2 Mo6 O24'
_cell_volume   563.41424889
_cell_formula_units_Z   2
loop_
 _symmetry_equiv_pos_site_id
 _symmetry_equiv_pos_as_xyz
  1  'x, y, z'
loop_
 _atom_site_type_symbol
 _atom_site_label
 _atom_site_symmetry_multiplicity
 _atom_site_fract_x
 _atom_site_fract_y
 _atom_site_fract_z
 _atom_site_occupancy
  Th  Th0  1  0.66666700  0.33333300  0.75000000  1
  Th  Th1  1  0.33333300  0.66666700  0.25000000  1
  Cd  Cd2  1  0.00000000  0.00000000  0.00000000  1
  Cd  Cd3  1  0.00000000  0.00000000  0.50000000  1
  Mo  Mo4  1  0.61208285  0.70876576  0.75000000  1
  Mo  Mo5  1  0.90331710  0.61208285  0.25000000  1
  Mo  Mo6  1  0.29123424  0.90331710  0.75000000  1
  Mo  Mo7  1  0.09668290  0.38791715  0.75000000  1
  Mo  Mo8  1  0.38791715  0.29123424  0.25000000  1
  Mo  Mo9  1  0.70876576  0.09668290  0.25000000  1
  O  O10  1  0.21227210  0.47151521  0.97586610  1
  O  O11  1  0.97464675  0.81941404  0.25000000  1
  O  O12  1  0.47151521  0.25924311  0.02413390  1
  O  O13  1  0.74075689  0.21227210  0.02413390  1
  O  O14  1  0.74075689  0.21227210  0.47586610  1
  O  O15  1  0.42972329  0.48525257  0.25000000  1
  O  O16  1  0.02535325  0.18058596  0.75000000  1
  O  O17  1  0.15523271  0.97464675  0.75000000  1
  O  O18  1  0.52848479  0.74075689  0.52413390  1
  O  O19  1  0.25924311  0.78772790  0.97586610  1
  O  O20  1  0.25924311  0.78772790  0.52413390  1
  O  O21  1  0.52848479  0.74075689  0.97586610  1
  O  O22  1  0.94447072  0.42972329  0.75000000  1
  O  O23  1  0.18058596  0.15523271  0.25000000  1
  O  O24  1  0.05552928  0.57027671  0.25000000  1
  O  O25  1  0.48525257  0.05552928  0.75000000  1
  O  O26  1  0.51474743  0.94447072  0.25000000  1
  O  O27  1  0.78772790  0.52848479  0.47586610  1
  O  O28  1  0.78772790  0.52848479  0.02413390  1
  O  O29  1  0.57027671  0.51474743  0.75000000  1
  O  O30  1  0.81941404  0.84476729  0.75000000  1
  O  O31  1  0.21227210  0.47151521  0.52413390  1
  O  O32  1  0.84476729  0.02535325  0.25000000  1
  O  O33  1  0.47151521  0.25924311  0.47586610  1
