# generated using pymatgen
data_NaSm9Si6(SO12)2
_symmetry_space_group_name_H-M   'P 1'
_cell_length_a   9.86908661
_cell_length_b   19.74207880
_cell_length_c   6.77940464
_cell_angle_alpha   90.00000000
_cell_angle_beta   90.00000000
_cell_angle_gamma   119.99816160
_symmetry_Int_Tables_number   1
_chemical_formula_structural   NaSm9Si6(SO12)2
_chemical_formula_sum   'Na2 Sm18 Si12 S4 O48'
_cell_volume   1143.93164491
_cell_formula_units_Z   2
loop_
 _symmetry_equiv_pos_site_id
 _symmetry_equiv_pos_as_xyz
  1  'x, y, z'
loop_
 _atom_site_type_symbol
 _atom_site_label
 _atom_site_symmetry_multiplicity
 _atom_site_fract_x
 _atom_site_fract_y
 _atom_site_fract_z
 _atom_site_occupancy
  Na  Na0  1  0.66676910  0.66663016  0.99268330  1
  Na  Na1  1  0.66676910  0.16663016  0.50731670  1
  Sm  Sm2  1  0.00851635  0.87837271  0.75523316  1
  Sm  Sm3  1  0.33155344  0.83323917  0.00357918  1
  Sm  Sm4  1  0.33509805  0.83353284  0.49833359  1
  Sm  Sm5  1  0.24282760  0.62583414  0.75242952  1
  Sm  Sm6  1  0.00851635  0.37837271  0.74476684  1
  Sm  Sm7  1  0.25472701  0.50946516  0.24913314  1
  Sm  Sm8  1  0.74833965  0.99554376  0.74676298  1
  Sm  Sm9  1  0.76397964  0.87256909  0.25071849  1
  Sm  Sm10  1  0.66654400  0.66672500  0.50740985  1
  Sm  Sm11  1  0.33509805  0.33353284  0.00166641  1
  Sm  Sm12  1  0.33155344  0.33323917  0.49642082  1
  Sm  Sm13  1  0.24282760  0.12583414  0.74757048  1
  Sm  Sm14  1  0.25472701  0.00946516  0.25086686  1
  Sm  Sm15  1  0.74833965  0.49554376  0.75323702  1
  Sm  Sm16  1  0.98106417  0.61804858  0.24762016  1
  Sm  Sm17  1  0.76397964  0.37256909  0.24928151  1
  Sm  Sm18  1  0.66654400  0.16672500  0.99259015  1
  Sm  Sm19  1  0.98106417  0.11804858  0.25237984  1
  Si  Si20  1  0.03116961  0.70354367  0.74531207  1
  Si  Si21  1  0.37607808  0.98450057  0.75243736  1
  Si  Si22  1  0.41368540  0.69193813  0.25246731  1
  Si  Si23  1  0.59296944  0.81197518  0.74839193  1
  Si  Si24  1  0.03116961  0.20354367  0.75468793  1
  Si  Si25  1  0.37607808  0.48450057  0.74756264  1
  Si  Si26  1  0.61619292  0.51498946  0.25343111  1
  Si  Si27  1  0.97001199  0.79311084  0.25410794  1
  Si  Si28  1  0.41368540  0.19193813  0.24753269  1
  Si  Si29  1  0.59296944  0.31197518  0.75160807  1
  Si  Si30  1  0.61619292  0.01498946  0.24656889  1
  Si  Si31  1  0.97001199  0.29311084  0.24589206  1
  S  S32  1  0.99832972  0.99643921  0.50741282  1
  S  S33  1  0.99832972  0.49643921  0.99258718  1
  S  S34  1  0.00160529  0.50336020  0.50041694  1
  S  S35  1  0.00160529  0.00336020  0.99958306  1
  O  O36  1  0.25713537  0.94759011  0.94438305  1
  O  O37  1  0.26220983  0.95003161  0.55605289  1
  O  O38  1  0.13070782  0.80113594  0.75083749  1
  O  O39  1  0.15873031  0.82623429  0.25327007  1
  O  O40  1  0.10727749  0.68280363  0.55315534  1
  O  O41  1  0.09775736  0.67913442  0.94115603  1
  O  O42  1  0.47168443  0.93466992  0.75237306  1
  O  O43  1  0.49380859  0.92063626  0.24615291  1
  O  O44  1  0.34775577  0.75328727  0.25045756  1
  O  O45  1  0.39779924  0.76421489  0.75491989  1
  O  O46  1  0.33965070  0.62993344  0.06904126  1
  O  O47  1  0.36172567  0.63430604  0.44759848  1
  O  O48  1  0.63281366  0.86986349  0.55409783  1
  O  O49  1  0.64369375  0.87066085  0.94197116  1
  O  O50  1  0.26220983  0.45003161  0.94394711  1
  O  O51  1  0.25713537  0.44759011  0.55561695  1
  O  O52  1  0.13070782  0.30113594  0.74916251  1
  O  O53  1  0.15873031  0.32623429  0.24672993  1
  O  O54  1  0.60525600  0.73858055  0.25603206  1
  O  O55  1  0.67267963  0.75812570  0.73981034  1
  O  O56  1  0.09775736  0.17913442  0.55884397  1
  O  O57  1  0.10727749  0.18280363  0.94684466  1
  O  O58  1  0.48366019  0.57822879  0.73974956  1
  O  O59  1  0.52269504  0.56401911  0.25704604  1
  O  O60  1  0.47168443  0.43466992  0.74762694  1
  O  O61  1  0.49380859  0.42063626  0.25384709  1
  O  O62  1  0.91975726  0.82995270  0.07039796  1
  O  O63  1  0.90654440  0.81898742  0.44895340  1
  O  O64  1  0.34775577  0.25328727  0.24954244  1
  O  O65  1  0.39779924  0.26421489  0.74508011  1
  O  O66  1  0.84373075  0.66369969  0.73829016  1
  O  O67  1  0.87188679  0.69734891  0.25638751  1
  O  O68  1  0.73244718  0.54662174  0.44735840  1
  O  O69  1  0.73912931  0.54011534  0.06854539  1
  O  O70  1  0.36172567  0.13430604  0.05240152  1
  O  O71  1  0.33965070  0.12993344  0.43095874  1
  O  O72  1  0.63281366  0.36986349  0.94590217  1
  O  O73  1  0.64369375  0.37066085  0.55802884  1
  O  O74  1  0.60525600  0.23858055  0.24396794  1
  O  O75  1  0.67267963  0.25812570  0.76018966  1
  O  O76  1  0.48366019  0.07822879  0.76025044  1
  O  O77  1  0.52269504  0.06401911  0.24295396  1
  O  O78  1  0.90654440  0.31898742  0.05104660  1
  O  O79  1  0.91975726  0.32995270  0.42960204  1
  O  O80  1  0.84373075  0.16369969  0.76170984  1
  O  O81  1  0.87188679  0.19734891  0.24361249  1
  O  O82  1  0.73912931  0.04011534  0.43145461  1
  O  O83  1  0.73244718  0.04662174  0.05264160  1
