# generated using pymatgen
data_LaMg2H7
_symmetry_space_group_name_H-M   'P 1'
_cell_length_a   6.36099035
_cell_length_b   6.36099035
_cell_length_c   9.53736112
_cell_angle_alpha   90.00000000
_cell_angle_beta   90.00000000
_cell_angle_gamma   90.00000000
_symmetry_Int_Tables_number   1
_chemical_formula_structural   LaMg2H7
_chemical_formula_sum   'La4 Mg8 H28'
_cell_volume   385.90259626
_cell_formula_units_Z   4
loop_
 _symmetry_equiv_pos_site_id
 _symmetry_equiv_pos_as_xyz
  1  'x, y, z'
loop_
 _atom_site_type_symbol
 _atom_site_label
 _atom_site_symmetry_multiplicity
 _atom_site_fract_x
 _atom_site_fract_y
 _atom_site_fract_z
 _atom_site_occupancy
  La  La0  1  0.76957671  0.23042329  0.75000000  1
  La  La1  1  0.23042329  0.76957671  0.25000000  1
  La  La2  1  0.73042329  0.73042329  0.50000000  1
  La  La3  1  0.26957671  0.26957671  0.00000000  1
  Mg  Mg4  1  0.52539083  0.23852337  0.39812324  1
  Mg  Mg5  1  0.47460917  0.76147663  0.89812324  1
  Mg  Mg6  1  0.73852337  0.97460917  0.14812324  1
  Mg  Mg7  1  0.26147663  0.02539083  0.64812324  1
  Mg  Mg8  1  0.76147663  0.47460917  0.10187676  1
  Mg  Mg9  1  0.23852337  0.52539083  0.60187676  1
  Mg  Mg10  1  0.97460917  0.73852337  0.85187676  1
  Mg  Mg11  1  0.02539083  0.26147663  0.35187676  1
  H  H12  1  0.53278862  0.46795710  0.62064395  1
  H  H13  1  0.46721138  0.53204290  0.12064395  1
  H  H14  1  0.96795710  0.96721138  0.37064395  1
  H  H15  1  0.03204290  0.03278862  0.87064395  1
  H  H16  1  0.53204290  0.46721138  0.87935605  1
  H  H17  1  0.46795710  0.53278862  0.37935605  1
  H  H18  1  0.96721138  0.96795710  0.62935605  1
  H  H19  1  0.03278862  0.03204290  0.12935605  1
  H  H20  1  0.57110976  0.06624486  0.56957973  1
  H  H21  1  0.42889024  0.93375514  0.06957973  1
  H  H22  1  0.56624486  0.92889024  0.31957973  1
  H  H23  1  0.43375514  0.07110976  0.81957973  1
  H  H24  1  0.93375514  0.42889024  0.93042027  1
  H  H25  1  0.06624486  0.57110976  0.43042027  1
  H  H26  1  0.92889024  0.56624486  0.68042027  1
  H  H27  1  0.07110976  0.43375514  0.18042027  1
  H  H28  1  0.80492503  0.33947943  0.49597222  1
  H  H29  1  0.19507497  0.66052057  0.99597222  1
  H  H30  1  0.83947943  0.69507497  0.24597222  1
  H  H31  1  0.16052057  0.30492503  0.74597222  1
  H  H32  1  0.66052057  0.19507497  0.00402778  1
  H  H33  1  0.33947943  0.80492503  0.50402778  1
  H  H34  1  0.69507497  0.83947943  0.75402778  1
  H  H35  1  0.30492503  0.16052057  0.25402778  1
  H  H36  1  0.25817337  0.74182663  0.75000000  1
  H  H37  1  0.74182663  0.25817337  0.25000000  1
  H  H38  1  0.24182663  0.24182663  0.50000000  1
  H  H39  1  0.75817337  0.75817337  0.00000000  1
