# generated using pymatgen
data_Ca10P6SO24
_symmetry_space_group_name_H-M   'P 1'
_cell_length_a   9.70756402
_cell_length_b   19.33177353
_cell_length_c   6.79668987
_cell_angle_alpha   90.00000000
_cell_angle_beta   90.00000000
_cell_angle_gamma   119.86457330
_symmetry_Int_Tables_number   1
_chemical_formula_structural   Ca10P6SO24
_chemical_formula_sum   'Ca20 P12 S2 O48'
_cell_volume   1106.11706157
_cell_formula_units_Z   2
loop_
 _symmetry_equiv_pos_site_id
 _symmetry_equiv_pos_as_xyz
  1  'x, y, z'
loop_
 _atom_site_type_symbol
 _atom_site_label
 _atom_site_symmetry_multiplicity
 _atom_site_fract_x
 _atom_site_fract_y
 _atom_site_fract_z
 _atom_site_occupancy
  Ca  Ca0  1  0.25397996  0.00477644  0.26596172  1
  Ca  Ca1  1  0.00073744  0.62544445  0.24251865  1
  Ca  Ca2  1  0.31677045  0.82719813  0.01759241  1
  Ca  Ca3  1  0.34431176  0.84022223  0.50960243  1
  Ca  Ca4  1  0.25362610  0.63002191  0.77750359  1
  Ca  Ca5  1  0.25989829  0.50088265  0.25182327  1
  Ca  Ca6  1  0.74637390  0.86997809  0.27750359  1
  Ca  Ca7  1  0.98751388  0.12489958  0.27519264  1
  Ca  Ca8  1  0.65568824  0.65977777  0.00960243  1
  Ca  Ca9  1  0.68322955  0.67280187  0.51759241  1
  Ca  Ca10  1  0.35009643  0.34070954  0.00467114  1
  Ca  Ca11  1  0.32251384  0.32770485  0.49748694  1
  Ca  Ca12  1  0.99926256  0.87455555  0.74251865  1
  Ca  Ca13  1  0.24853758  0.12648667  0.73985445  1
  Ca  Ca14  1  0.74602004  0.49522356  0.76596172  1
  Ca  Ca15  1  0.75146242  0.37351333  0.23985445  1
  Ca  Ca16  1  0.67748616  0.17229515  0.99748694  1
  Ca  Ca17  1  0.64990357  0.15929046  0.50467114  1
  Ca  Ca18  1  0.01248612  0.37510042  0.77519264  1
  Ca  Ca19  1  0.74010171  0.99911735  0.75182327  1
  P  P20  1  0.03492742  0.70385492  0.75415549  1
  P  P21  1  0.36850489  0.98485978  0.76381760  1
  P  P22  1  0.39926797  0.68324696  0.26827827  1
  P  P23  1  0.60073203  0.81675304  0.76827827  1
  P  P24  1  0.02941610  0.19924091  0.76392430  1
  P  P25  1  0.37751525  0.48481807  0.75238576  1
  P  P26  1  0.63149511  0.51514022  0.26381760  1
  P  P27  1  0.96507258  0.79614508  0.25415549  1
  P  P28  1  0.40541492  0.18731769  0.24912265  1
  P  P29  1  0.59458508  0.31268231  0.74912265  1
  P  P30  1  0.62248475  0.01518193  0.25238576  1
  P  P31  1  0.97058390  0.30075909  0.26392430  1
  S  S32  1  0.00397332  0.50055838  0.00318982  1
  S  S33  1  0.99602668  0.99944162  0.50318982  1
  O  O34  1  0.23742096  0.96382544  0.92309831  1
  O  O35  1  0.14702091  0.83097120  0.25850659  1
  O  O36  1  0.12483222  0.79675106  0.73476545  1
  O  O37  1  0.28257489  0.95369010  0.56293152  1
  O  O38  1  0.09961551  0.68704903  0.94696072  1
  O  O39  1  0.08518791  0.66796503  0.58267788  1
  O  O40  1  0.45805361  0.93751787  0.80074389  1
  O  O41  1  0.33383483  0.74173119  0.25868108  1
  O  O42  1  0.51028551  0.92380140  0.25345895  1
  O  O43  1  0.41666618  0.76969445  0.79702435  1
  O  O44  1  0.31308154  0.62110349  0.43488089  1
  O  O45  1  0.37521144  0.63444862  0.07606487  1
  O  O46  1  0.62478856  0.86555138  0.57606487  1
  O  O47  1  0.28879554  0.45377199  0.95172046  1
  O  O48  1  0.68691846  0.87889651  0.93488089  1
  O  O49  1  0.15125120  0.33162791  0.25597072  1
  O  O50  1  0.12511503  0.29186917  0.79219470  1
  O  O51  1  0.24881648  0.45906726  0.58906746  1
  O  O52  1  0.58333382  0.73030555  0.29702435  1
  O  O53  1  0.06690228  0.15567414  0.93055105  1
  O  O54  1  0.48971449  0.57619860  0.75345895  1
  O  O55  1  0.66616517  0.75826881  0.75868108  1
  O  O56  1  0.09569487  0.18472400  0.56956266  1
  O  O57  1  0.54194639  0.56248213  0.30074389  1
  O  O58  1  0.46962288  0.43855766  0.72021577  1
  O  O59  1  0.91481209  0.83203497  0.08267788  1
  O  O60  1  0.34064145  0.24573063  0.25338183  1
  O  O61  1  0.51331844  0.42439392  0.26081118  1
  O  O62  1  0.90038449  0.81295097  0.44696072  1
  O  O63  1  0.40955526  0.26676266  0.72987354  1
  O  O64  1  0.71742511  0.54630990  0.06293152  1
  O  O65  1  0.87516778  0.70324894  0.23476545  1
  O  O66  1  0.85297909  0.66902880  0.75850659  1
  O  O67  1  0.37126700  0.13678857  0.44088651  1
  O  O68  1  0.76257904  0.53617456  0.42309831  1
  O  O69  1  0.32867024  0.12678239  0.07758850  1
  O  O70  1  0.67132976  0.37321761  0.57758850  1
  O  O71  1  0.62873300  0.36321143  0.94088651  1
  O  O72  1  0.59044474  0.23323734  0.22987354  1
  O  O73  1  0.48668156  0.07560608  0.76081118  1
  O  O74  1  0.65935855  0.25426937  0.75338183  1
  O  O75  1  0.53037712  0.06144234  0.22021577  1
  O  O76  1  0.90430513  0.31527600  0.06956266  1
  O  O77  1  0.93309772  0.34432586  0.43055105  1
  O  O78  1  0.75118352  0.04093274  0.08906746  1
  O  O79  1  0.87488497  0.20813083  0.29219470  1
  O  O80  1  0.84874880  0.16837209  0.75597072  1
  O  O81  1  0.71120446  0.04622801  0.45172046  1
