# generated using pymatgen
data_NaPr9Si6(SO12)2
_symmetry_space_group_name_H-M   'P 1'
_cell_length_a   9.92379816
_cell_length_b   19.84988073
_cell_length_c   6.99253804
_cell_angle_alpha   90.00000000
_cell_angle_beta   90.00000000
_cell_angle_gamma   119.99613418
_symmetry_Int_Tables_number   1
_chemical_formula_structural   NaPr9Si6(SO12)2
_chemical_formula_sum   'Na2 Pr18 Si12 S4 O48'
_cell_volume   1192.93892568
_cell_formula_units_Z   2
loop_
 _symmetry_equiv_pos_site_id
 _symmetry_equiv_pos_as_xyz
  1  'x, y, z'
loop_
 _atom_site_type_symbol
 _atom_site_label
 _atom_site_symmetry_multiplicity
 _atom_site_fract_x
 _atom_site_fract_y
 _atom_site_fract_z
 _atom_site_occupancy
  Na  Na0  1  0.66664242  0.66666852  0.99249626  1
  Na  Na1  1  0.66664242  0.16666852  0.50750374  1
  Pr  Pr2  1  0.99744667  0.87520181  0.75429451  1
  Pr  Pr3  1  0.33264151  0.83339026  0.00161457  1
  Pr  Pr4  1  0.33405467  0.83332536  0.49936870  1
  Pr  Pr5  1  0.24945878  0.62349293  0.75247484  1
  Pr  Pr6  1  0.99744667  0.37520181  0.74570549  1
  Pr  Pr7  1  0.24981009  0.50337346  0.24909857  1
  Pr  Pr8  1  0.75299904  0.00120461  0.74652910  1
  Pr  Pr9  1  0.75686322  0.87507082  0.25010669  1
  Pr  Pr10  1  0.66667467  0.66665576  0.50226778  1
  Pr  Pr11  1  0.33405467  0.33332536  0.00063130  1
  Pr  Pr12  1  0.33264151  0.33339026  0.49838543  1
  Pr  Pr13  1  0.24945878  0.12349293  0.74752516  1
  Pr  Pr14  1  0.24981009  0.00337346  0.25090143  1
  Pr  Pr15  1  0.75299904  0.50120461  0.75347090  1
  Pr  Pr16  1  0.99330934  0.62162402  0.24754025  1
  Pr  Pr17  1  0.75686322  0.37507082  0.24989331  1
  Pr  Pr18  1  0.66667467  0.16665576  0.99773222  1
  Pr  Pr19  1  0.99330934  0.12162402  0.25245975  1
  Si  Si20  1  0.03211146  0.70312851  0.74681437  1
  Si  Si21  1  0.37419314  0.98396921  0.75179729  1
  Si  Si22  1  0.40975657  0.68940916  0.25128975  1
  Si  Si23  1  0.59378939  0.81290682  0.74860107  1
  Si  Si24  1  0.03211146  0.20312851  0.75318563  1
  Si  Si25  1  0.37419314  0.48396921  0.74820271  1
  Si  Si26  1  0.62122799  0.51551361  0.25191644  1
  Si  Si27  1  0.96898451  0.79510821  0.25212864  1
  Si  Si28  1  0.40975657  0.18940916  0.24871025  1
  Si  Si29  1  0.59378939  0.31290682  0.75139893  1
  Si  Si30  1  0.62122799  0.01551361  0.24808356  1
  Si  Si31  1  0.96898451  0.29510821  0.24787136  1
  S  S32  1  0.99880098  0.49719719  0.99302741  1
  S  S33  1  0.00115961  0.00268734  0.99718072  1
  S  S34  1  0.99880098  0.99719719  0.50697259  1
  S  S35  1  0.00115961  0.50268734  0.50281928  1
  O  O36  1  0.25868143  0.94682779  0.93999360  1
  O  O37  1  0.26193281  0.94893684  0.56092343  1
  O  O38  1  0.15926899  0.83273672  0.25275449  1
  O  O39  1  0.12663372  0.79996897  0.75026904  1
  O  O40  1  0.10758935  0.68341253  0.55871375  1
  O  O41  1  0.10098552  0.68106726  0.93762604  1
  O  O42  1  0.47336536  0.93668698  0.75114183  1
  O  O43  1  0.33462393  0.74697814  0.25093279  1
  O  O44  1  0.50624420  0.92038006  0.24671398  1
  O  O45  1  0.40008712  0.76334390  0.75263778  1
  O  O46  1  0.36323490  0.63278180  0.44205705  1
  O  O47  1  0.34059602  0.62833240  0.07189670  1
  O  O48  1  0.63880519  0.86997286  0.93818819  1
  O  O49  1  0.63239704  0.86981161  0.55928316  1
  O  O50  1  0.26193281  0.44893684  0.93907657  1
  O  O51  1  0.25868143  0.44682779  0.56000640  1
  O  O52  1  0.15926899  0.33273672  0.24724551  1
  O  O53  1  0.12663372  0.29996897  0.74973096  1
  O  O54  1  0.60026905  0.73880453  0.25382493  1
  O  O55  1  0.47789848  0.57799840  0.74147634  1
  O  O56  1  0.67803194  0.76100363  0.74155937  1
  O  O57  1  0.10098552  0.18106726  0.56237396  1
  O  O58  1  0.10758935  0.18341253  0.94128625  1
  O  O59  1  0.52233995  0.56132898  0.25409945  1
  O  O60  1  0.47336536  0.43668698  0.74885817  1
  O  O61  1  0.91565327  0.82953405  0.07262169  1
  O  O62  1  0.90227764  0.81831960  0.44282420  1
  O  O63  1  0.33462393  0.24697814  0.24906721  1
  O  O64  1  0.50624420  0.42038006  0.25328602  1
  O  O65  1  0.40008712  0.26334390  0.74736222  1
  O  O66  1  0.87736927  0.69986048  0.25393646  1
  O  O67  1  0.84405053  0.66099695  0.74085206  1
  O  O68  1  0.73485788  0.54879374  0.44213872  1
  O  O69  1  0.74287835  0.54219117  0.07179632  1
  O  O70  1  0.34059602  0.12833240  0.42810330  1
  O  O71  1  0.36323490  0.13278180  0.05794295  1
  O  O72  1  0.63880519  0.36997286  0.56181181  1
  O  O73  1  0.63239704  0.36981161  0.94071684  1
  O  O74  1  0.60026905  0.23880453  0.24617507  1
  O  O75  1  0.47789848  0.07799840  0.75852366  1
  O  O76  1  0.67803194  0.26100363  0.75844063  1
  O  O77  1  0.52233995  0.06132898  0.24590055  1
  O  O78  1  0.90227764  0.31831960  0.05717580  1
  O  O79  1  0.91565327  0.32953405  0.42737831  1
  O  O80  1  0.87736927  0.19986048  0.24606354  1
  O  O81  1  0.84405053  0.16099695  0.75914794  1
  O  O82  1  0.73485788  0.04879374  0.05786128  1
  O  O83  1  0.74287835  0.04219117  0.42820368  1
