# generated using pymatgen
data_Cu3P4Se4Br3
_symmetry_space_group_name_H-M   'P 1'
_cell_length_a   6.50725950
_cell_length_b   19.28822149
_cell_length_c   34.06127578
_cell_angle_alpha   90.12737089
_cell_angle_beta   90.00000000
_cell_angle_gamma   90.00000000
_symmetry_Int_Tables_number   1
_chemical_formula_structural   Cu3P4Se4Br3
_chemical_formula_sum   'Cu36 P48 Se48 Br36'
_cell_volume   4275.13809670
_cell_formula_units_Z   12
loop_
 _symmetry_equiv_pos_site_id
 _symmetry_equiv_pos_as_xyz
  1  'x, y, z'
loop_
 _atom_site_type_symbol
 _atom_site_label
 _atom_site_symmetry_multiplicity
 _atom_site_fract_x
 _atom_site_fract_y
 _atom_site_fract_z
 _atom_site_occupancy
  Cu  Cu0  1  0.26098881  0.12410055  0.92979452  1
  Cu  Cu1  1  0.03493244  0.12321923  0.26460848  1
  Cu  Cu2  1  0.72717319  0.67592352  0.35380416  1
  Cu  Cu3  1  0.76098881  0.87589945  0.07020548  1
  Cu  Cu4  1  0.76512299  0.69612469  0.14159712  1
  Cu  Cu5  1  0.25101868  0.82827944  0.46779768  1
  Cu  Cu6  1  0.24766593  0.80178559  0.01424727  1
  Cu  Cu7  1  0.22983081  0.62570590  0.41804252  1
  Cu  Cu8  1  0.75024707  0.69712753  0.47468934  1
  Cu  Cu9  1  0.53493244  0.87678077  0.73539152  1
  Cu  Cu10  1  0.72983081  0.37429410  0.58195748  1
  Cu  Cu11  1  0.26886459  0.82472705  0.13563682  1
  Cu  Cu12  1  0.52975650  0.67744926  0.68740567  1
  Cu  Cu13  1  0.04833858  0.30464540  0.19087262  1
  Cu  Cu14  1  0.22282943  0.79898886  0.34765511  1
  Cu  Cu15  1  0.25024707  0.30287247  0.52531066  1
  Cu  Cu16  1  0.53047105  0.20090486  0.31956392  1
  Cu  Cu17  1  0.53267108  0.37262770  0.24878063  1
  Cu  Cu18  1  0.25388634  0.62549840  0.08346743  1
  Cu  Cu19  1  0.76886459  0.17527295  0.86436318  1
  Cu  Cu20  1  0.22717319  0.32407648  0.64619584  1
  Cu  Cu21  1  0.75101868  0.17172056  0.53220232  1
  Cu  Cu22  1  0.54833858  0.69535460  0.80912738  1
  Cu  Cu23  1  0.75106039  0.67878137  0.02029420  1
  Cu  Cu24  1  0.25106039  0.32121863  0.97970580  1
  Cu  Cu25  1  0.26512299  0.30387531  0.85840288  1
  Cu  Cu26  1  0.03267108  0.62737230  0.75121937  1
  Cu  Cu27  1  0.72282943  0.20101114  0.65234489  1
  Cu  Cu28  1  0.04777921  0.83071824  0.80188106  1
  Cu  Cu29  1  0.03047105  0.79909514  0.68043608  1
  Cu  Cu30  1  0.54777921  0.16928176  0.19811894  1
  Cu  Cu31  1  0.74766593  0.19821441  0.98575273  1
  Cu  Cu32  1  0.75388634  0.37450160  0.91653257  1
  Cu  Cu33  1  0.02975650  0.32255074  0.31259433  1
  Cu  Cu34  1  0.73637704  0.87609197  0.40207196  1
  Cu  Cu35  1  0.23637704  0.12390803  0.59792804  1
  P  P36  1  0.63731439  0.98515484  0.40618695  1
  P  P37  1  0.89314849  0.55924930  0.93578167  1
  P  P38  1  0.16025826  0.01519925  0.92732288  1
  P  P39  1  0.62963983  0.48330672  0.58029279  1
  P  P40  1  0.19461562  0.87801333  0.52496764  1
  P  P41  1  0.64998631  0.48314687  0.91649374  1
  P  P42  1  0.59479414  0.62127696  0.63230767  1
  P  P43  1  0.13123741  0.87667058  0.85856989  1
  P  P44  1  0.08671546  0.86032254  0.62686715  1
  P  P45  1  0.85526796  0.54472260  0.27404709  1
  P  P46  1  0.10130673  0.01144009  0.26060541  1
  P  P47  1  0.63160837  0.64206324  0.86357714  1
  P  P48  1  0.63248126  0.62238711  0.29952042  1
  P  P49  1  0.35976626  0.93949043  0.28007200  1
  P  P50  1  0.69413759  0.64227385  0.53009603  1
  P  P51  1  0.89459699  0.06871307  0.06098444  1
  P  P52  1  0.65140280  0.62247294  0.96721616  1
  P  P53  1  0.58940279  0.48507212  0.24718253  1
  P  P54  1  0.39314849  0.44075070  0.06421833  1
  P  P55  1  0.70001021  0.64196913  0.19689747  1
  P  P56  1  0.85789189  0.55405940  0.60999490  1
  P  P57  1  0.63123741  0.12332942  0.14143011  1
  P  P58  1  0.14998631  0.51685313  0.08350626  1
  P  P59  1  0.20458236  0.87446241  0.19251550  1
  P  P60  1  0.13248126  0.37761289  0.70047958  1
  P  P61  1  0.70458236  0.12553759  0.80748450  1
  P  P62  1  0.35789189  0.44594060  0.39000510  1
  P  P63  1  0.58671546  0.13967746  0.37313285  1
  P  P64  1  0.66025826  0.98480075  0.07267712  1
  P  P65  1  0.12649055  0.85731138  0.29501550  1
  P  P66  1  0.08940279  0.51492788  0.75281747  1
  P  P67  1  0.64464908  0.13780971  0.03714001  1
  P  P68  1  0.35526796  0.45527740  0.72595291  1
  P  P69  1  0.20001021  0.35803087  0.80310253  1
  P  P70  1  0.39459699  0.93128693  0.93901556  1
  P  P71  1  0.13160837  0.35793676  0.13642286  1
  P  P72  1  0.85976626  0.06050957  0.71992800  1
  P  P73  1  0.62649055  0.14268862  0.70498450  1
  P  P74  1  0.35617993  0.93190758  0.61470563  1
  P  P75  1  0.69461562  0.12198667  0.47503236  1
  P  P76  1  0.15140280  0.37752706  0.03278384  1
  P  P77  1  0.13731439  0.01484516  0.59381305  1
  P  P78  1  0.85617993  0.06809242  0.38529437  1
  P  P79  1  0.09479414  0.37872304  0.36769233  1
  P  P80  1  0.60130673  0.98855991  0.73939459  1
  P  P81  1  0.19413759  0.35772615  0.46990397  1
  P  P82  1  0.14464908  0.86219029  0.96285999  1
  P  P83  1  0.12963983  0.51669328  0.41970721  1
  Se  Se84  1  0.46064675  0.03776336  0.02501374  1
  Se  Se85  1  0.95771838  0.47815267  0.03083738  1
  Se  Se86  1  0.39176965  0.53426717  0.29605176  1
  Se  Se87  1  0.05162610  0.80208235  0.23670108  1
  Se  Se88  1  0.45771838  0.52184733  0.96916262  1
  Se  Se89  1  0.56008144  0.69858578  0.24974777  1
  Se  Se90  1  0.96064675  0.96223664  0.97498626  1
  Se  Se91  1  0.52288638  0.54048231  0.18892908  1
  Se  Se92  1  0.49842672  0.89271686  0.55962217  1
  Se  Se93  1  0.50748262  0.53153881  0.86098582  1
  Se  Se94  1  0.00633820  0.09872216  0.77472151  1
  Se  Se95  1  -0.00157328  0.10728314  0.44037783  1
  Se  Se96  1  0.00748262  0.46846119  0.13901418  1
  Se  Se97  1  0.50146449  0.39878641  0.77535507  1
  Se  Se98  1  0.02789545  0.30481380  0.41860787  1
  Se  Se99  1  0.51030913  0.69257196  0.91971964  1
  Se  Se100  1  0.39549482  0.52271823  0.62603710  1
  Se  Se101  1  0.55162610  0.19791765  0.76329892  1
  Se  Se102  1  0.39601912  0.05245211  0.69754172  1
  Se  Se103  1  0.89549482  0.47728177  0.37396290  1
  Se  Se104  1  0.51846543  0.19160776  0.43243893  1
  Se  Se105  1  0.39368007  0.03988373  0.36764008  1
  Se  Se106  1  0.49915454  0.38760318  0.43919289  1
  Se  Se107  1  0.46927934  0.88699210  0.88040389  1
  Se  Se108  1  0.46941455  0.38039206  0.11771128  1
  Se  Se109  1  0.54842447  0.53572632  0.52159913  1
  Se  Se110  1  0.56094530  0.01244704  0.47005534  1
  Se  Se111  1  0.04842447  0.46427368  0.47840087  1
  Se  Se112  1  -0.00084546  0.61239682  0.56080711  1
  Se  Se113  1  0.01898201  0.98762258  0.86750566  1
  Se  Se114  1  0.06008144  0.30141422  0.75025223  1
  Se  Se115  1  0.00146449  0.60121359  0.22464493  1
  Se  Se116  1  0.96927934  0.11300790  0.11959611  1
  Se  Se117  1  0.51898201  0.01237742  0.13249434  1
  Se  Se118  1  0.89368007  0.96011627  0.63235992  1
  Se  Se119  1  0.02288638  0.45951769  0.81107092  1
  Se  Se120  1  0.01030913  0.30742804  0.08028036  1
  Se  Se121  1  0.01846543  0.80839224  0.56756107  1
  Se  Se122  1  0.50633820  0.90127784  0.22527849  1
  Se  Se123  1  0.52789545  0.69518620  0.58139213  1
  Se  Se124  1  0.89601912  0.94754789  0.30245828  1
  Se  Se125  1  0.89176965  0.46573283  0.70394824  1
  Se  Se126  1  0.03882697  0.97918094  0.19699967  1
  Se  Se127  1  0.96941455  0.61960794  0.88228872  1
  Se  Se128  1  0.06094530  0.98755296  0.52994466  1
  Se  Se129  1  0.49981812  0.18937160  0.09169749  1
  Se  Se130  1  0.53882697  0.02081906  0.80300033  1
  Se  Se131  1  0.99981812  0.81062840  0.90830251  1
  Br  Br132  1  0.64209137  0.80327863  0.01433796  1
  Br  Br133  1  0.15981597  0.18176495  0.86638371  1
  Br  Br134  1  0.13129468  0.19810388  0.32020541  1
  Br  Br135  1  0.13957320  0.87747115  0.73637628  1
  Br  Br136  1  0.15200979  0.87503078  0.07274220  1
  Br  Br137  1  0.63154793  0.32331481  0.31391078  1
  Br  Br138  1  0.65979012  0.81622702  0.79617915  1
  Br  Br139  1  0.65200979  0.12496922  0.92725780  1
  Br  Br140  1  0.61972287  0.32386062  0.64644264  1
  Br  Br141  1  0.62880014  0.12413281  0.59541392  1
  Br  Br142  1  0.14345751  0.67886808  0.01961239  1
  Br  Br143  1  0.65981597  0.81823505  0.13361629  1
  Br  Br144  1  0.15979012  0.18377298  0.20382085  1
  Br  Br145  1  0.64161420  0.81856276  0.46594221  1
  Br  Br146  1  0.62450288  0.62538431  0.41768286  1
  Br  Br147  1  0.14161420  0.18143724  0.53405779  1
  Br  Br148  1  0.15957114  0.70582433  0.80286994  1
  Br  Br149  1  0.64713713  0.62561487  0.08374133  1
  Br  Br150  1  0.14141017  0.70354948  0.47290010  1
  Br  Br151  1  0.14209137  0.19672137  0.98566204  1
  Br  Br152  1  0.12450288  0.37461569  0.58231714  1
  Br  Br153  1  0.63129468  0.80189612  0.67979459  1
  Br  Br154  1  0.61769780  0.80090490  0.34750612  1
  Br  Br155  1  0.63588561  0.62402246  0.74987385  1
  Br  Br156  1  0.11972287  0.67613938  0.35355736  1
  Br  Br157  1  0.12880014  0.87586719  0.40458608  1
  Br  Br158  1  0.11769780  0.19909510  0.65249388  1
  Br  Br159  1  0.13154793  0.67668519  0.68608922  1
  Br  Br160  1  0.13588561  0.37597754  0.25012615  1
  Br  Br161  1  0.64141017  0.29645052  0.52709990  1
  Br  Br162  1  0.65752868  0.29981243  0.86045331  1
  Br  Br163  1  0.64345751  0.32113192  0.98038761  1
  Br  Br164  1  0.15752868  0.70018757  0.13954669  1
  Br  Br165  1  0.65957114  0.29417567  0.19713006  1
  Br  Br166  1  0.14713713  0.37438513  0.91625867  1
  Br  Br167  1  0.63957320  0.12252885  0.26362372  1
