# generated using pymatgen
data_Al2H12(SeO5)3
_symmetry_space_group_name_H-M   'P 1'
_cell_length_a   8.81693897
_cell_length_b   8.81693932
_cell_length_c   10.93913712
_cell_angle_alpha   90.00000000
_cell_angle_beta   90.00000000
_cell_angle_gamma   120.00027190
_symmetry_Int_Tables_number   1
_chemical_formula_structural   Al2H12(SeO5)3
_chemical_formula_sum   'Al4 H24 Se6 O30'
_cell_volume   736.45835626
_cell_formula_units_Z   2
loop_
 _symmetry_equiv_pos_site_id
 _symmetry_equiv_pos_as_xyz
  1  'x, y, z'
loop_
 _atom_site_type_symbol
 _atom_site_label
 _atom_site_symmetry_multiplicity
 _atom_site_fract_x
 _atom_site_fract_y
 _atom_site_fract_z
 _atom_site_occupancy
  Al  Al0  1  0.33332955  0.66666043  0.96540400  1
  Al  Al1  1  0.33332955  0.66666043  0.53459600  1
  Al  Al2  1  0.66666043  0.33332955  0.46540400  1
  Al  Al3  1  0.66666043  0.33332955  0.03459600  1
  H  H4  1  0.80053783  0.21708924  0.63202243  1
  H  H5  1  0.78290863  0.58344988  0.63202284  1
  H  H6  1  0.41654431  0.19945450  0.63202494  1
  H  H7  1  0.80053783  0.21708924  0.86797757  1
  H  H8  1  0.78290863  0.58344988  0.86797716  1
  H  H9  1  0.41654431  0.19945450  0.86797506  1
  H  H10  1  0.21708924  0.80053784  0.13202243  1
  H  H11  1  0.58344988  0.78290863  0.13202284  1
  H  H12  1  0.19945450  0.41654431  0.13202494  1
  H  H13  1  0.21708924  0.80053784  0.36797757  1
  H  H14  1  0.58344988  0.78290863  0.36797716  1
  H  H15  1  0.19945450  0.41654431  0.36797506  1
  H  H16  1  0.94091667  0.41752656  0.59271958  1
  H  H17  1  0.58247091  0.52339289  0.59272146  1
  H  H18  1  0.47660335  0.05907508  0.59272193  1
  H  H19  1  0.94091667  0.41752656  0.90728042  1
  H  H20  1  0.58247091  0.52339289  0.90727854  1
  H  H21  1  0.47660335  0.05907508  0.90727807  1
  H  H22  1  0.41752656  0.94091667  0.09271958  1
  H  H23  1  0.52339289  0.58247091  0.09272146  1
  H  H24  1  0.05907508  0.47660335  0.09272193  1
  H  H25  1  0.41752656  0.94091667  0.40728042  1
  H  H26  1  0.52339289  0.58247091  0.40727854  1
  H  H27  1  0.05907508  0.47660335  0.40727807  1
  Se  Se28  1  0.61683437  0.87778906  0.75000000  1
  Se  Se29  1  0.12220926  0.73904361  0.75000000  1
  Se  Se30  1  0.26094981  0.38315574  0.75000000  1
  Se  Se31  1  0.87778906  0.61683437  0.25000000  1
  Se  Se32  1  0.73904361  0.12220926  0.25000000  1
  Se  Se33  1  0.38315574  0.26094981  0.25000000  1
  O  O34  1  0.47627000  0.16742728  0.56667311  1
  O  O35  1  0.83256346  0.30884170  0.56667118  1
  O  O36  1  0.69115477  0.52372398  0.56667199  1
  O  O37  1  0.47627000  0.16742728  0.93332689  1
  O  O38  1  0.83256346  0.30884170  0.93332882  1
  O  O39  1  0.69115477  0.52372398  0.93332801  1
  O  O40  1  0.16742727  0.47627000  0.06667311  1
  O  O41  1  0.30884170  0.83256346  0.06667118  1
  O  O42  1  0.52372398  0.69115478  0.06667199  1
  O  O43  1  0.16742727  0.47627000  0.43332689  1
  O  O44  1  0.30884170  0.83256346  0.43332882  1
  O  O45  1  0.52372398  0.69115478  0.43332801  1
  O  O46  1  0.38653986  0.51588311  0.87212190  1
  O  O47  1  0.48410759  0.87064734  0.87212379  1
  O  O48  1  0.12934296  0.61345326  0.87212272  1
  O  O49  1  0.38653986  0.51588311  0.62787810  1
  O  O50  1  0.48410759  0.87064734  0.62787621  1
  O  O51  1  0.12934296  0.61345326  0.62787728  1
  O  O52  1  0.51588311  0.38653986  0.37212190  1
  O  O53  1  0.87064734  0.48410759  0.37212379  1
  O  O54  1  0.61345326  0.12934296  0.37212272  1
  O  O55  1  0.51588311  0.38653986  0.12787810  1
  O  O56  1  0.87064734  0.48410759  0.12787621  1
  O  O57  1  0.61345326  0.12934296  0.12787728  1
  O  O58  1  0.76973191  0.09333266  0.75000000  1
  O  O59  1  0.90666651  0.67639982  0.75000000  1
  O  O60  1  0.32359672  0.23026023  0.75000000  1
  O  O61  1  0.09333266  0.76973191  0.25000000  1
  O  O62  1  0.67639982  0.90666651  0.25000000  1
  O  O63  1  0.23026023  0.32359672  0.25000000  1
