# generated using pymatgen
data_Be3Fe4Si3SeO12
_symmetry_space_group_name_H-M   'P 1'
_cell_length_a   8.36032226
_cell_length_b   8.36237859
_cell_length_c   8.36635512
_cell_angle_alpha   89.69511462
_cell_angle_beta   90.00687425
_cell_angle_gamma   89.73813996
_symmetry_Int_Tables_number   1
_chemical_formula_structural   Be3Fe4Si3SeO12
_chemical_formula_sum   'Be6 Fe8 Si6 Se2 O24'
_cell_volume   584.89572776
_cell_formula_units_Z   2
loop_
 _symmetry_equiv_pos_site_id
 _symmetry_equiv_pos_as_xyz
  1  'x, y, z'
loop_
 _atom_site_type_symbol
 _atom_site_label
 _atom_site_symmetry_multiplicity
 _atom_site_fract_x
 _atom_site_fract_y
 _atom_site_fract_z
 _atom_site_occupancy
  Be  Be0  1  -0.00003446  0.75000368  0.49882772  1
  Be  Be1  1  0.24993724  0.49998883  0.99996834  1
  Be  Be2  1  0.50003391  0.00027838  0.75002940  1
  Be  Be3  1  0.49975496  -0.00000623  0.24998261  1
  Be  Be4  1  0.99869135  0.25010097  0.50003992  1
  Be  Be5  1  0.75000025  0.49998770  0.99996695  1
  Fe  Fe6  1  0.67528057  0.67454284  0.67704436  1
  Fe  Fe7  1  0.82571367  0.17744152  0.82463867  1
  Fe  Fe8  1  0.67492632  0.32288894  0.32545764  1
  Fe  Fe9  1  0.32545368  0.67745148  0.32455252  1
  Fe  Fe10  1  0.82573072  0.82272208  0.17512566  1
  Fe  Fe11  1  0.17735637  0.82464557  0.82486242  1
  Fe  Fe12  1  0.17702743  0.17422271  0.17584314  1
  Fe  Fe13  1  0.32491173  0.32480382  0.67751339  1
  Si  Si14  1  0.00019482  0.50033237  0.24986325  1
  Si  Si15  1  0.50123091  0.25007794  0.99937672  1
  Si  Si16  1  0.49939493  0.75015035  0.00123849  1
  Si  Si17  1  0.99988505  0.49961083  0.74959237  1
  Si  Si18  1  0.74957553  0.00038959  0.50018964  1
  Si  Si19  1  0.24938375  0.99963098  0.50015548  1
  Se  Se20  1  0.50058599  0.49998654  0.50105717  1
  Se  Se21  1  0.00133589  0.99984574  0.00056734  1
  O  O22  1  0.85755151  0.85906437  0.41606813  1
  O  O23  1  0.35948012  0.91653786  0.35970793  1
  O  O24  1  0.85928192  0.58382519  0.13917553  1
  O  O25  1  0.14086930  0.58311337  0.85767382  1
  O  O26  1  0.14218077  0.41653440  0.14208399  1
  O  O27  1  0.58365829  0.14146583  0.85741885  1
  O  O28  1  0.35797850  0.64078254  0.08346823  1
  O  O29  1  0.35756591  0.08327075  0.64086838  1
  O  O30  1  0.58324792  0.85823109  0.14223972  1
  O  O31  1  0.63918577  0.08383232  0.35928952  1
  O  O32  1  0.08314179  0.64198729  0.35698944  1
  O  O33  1  0.13993392  0.14149984  0.41677218  1
  O  O34  1  0.41620683  0.86059309  0.86029486  1
  O  O35  1  0.85717935  0.14133019  0.58323216  1
  O  O36  1  0.91664916  0.64165615  0.64038615  1
  O  O37  1  0.64209998  0.35844876  0.08330353  1
  O  O38  1  0.14096030  0.85751527  0.58283927  1
  O  O39  1  0.63964785  0.64034666  0.91643752  1
  O  O40  1  0.08257407  0.35748172  0.64120437  1
  O  O41  1  0.64183947  0.91648493  0.64187980  1
  O  O42  1  0.91621001  0.35925033  0.35742521  1
  O  O43  1  0.41652099  0.14052151  0.13932597  1
  O  O44  1  0.36009805  0.36060369  0.91608956  1
  O  O45  1  0.85956762  0.41652624  0.85993270  1
