# generated using pymatgen
data_AgH8C4N8F
_symmetry_space_group_name_H-M   'P 1'
_cell_length_a   6.20828504
_cell_length_b   7.73430346
_cell_length_c   9.83865920
_cell_angle_alpha   93.03938081
_cell_angle_beta   97.80399135
_cell_angle_gamma   97.64989186
_symmetry_Int_Tables_number   1
_chemical_formula_structural   AgH8C4N8F
_chemical_formula_sum   'Ag2 H16 C8 N16 F2'
_cell_volume   462.66195683
_cell_formula_units_Z   2
loop_
 _symmetry_equiv_pos_site_id
 _symmetry_equiv_pos_as_xyz
  1  'x, y, z'
loop_
 _atom_site_type_symbol
 _atom_site_label
 _atom_site_symmetry_multiplicity
 _atom_site_fract_x
 _atom_site_fract_y
 _atom_site_fract_z
 _atom_site_occupancy
  Ag  Ag0  1  0.13339950  0.35813419  0.92482056  1
  Ag  Ag1  1  0.86660050  0.64186581  0.07517944  1
  H  H2  1  0.04503065  0.27264563  0.56196514  1
  H  H3  1  0.11078132  0.48511665  0.63091727  1
  H  H4  1  0.20896461  0.86097357  0.62143531  1
  H  H5  1  0.08146703  0.01016942  0.30318944  1
  H  H6  1  0.10235839  0.99565912  0.12596103  1
  H  H7  1  0.36323951  0.74257720  0.73600142  1
  H  H8  1  0.32361149  0.11252254  0.52893589  1
  H  H9  1  0.40307865  0.81165990  0.40423819  1
  H  H10  1  0.59692135  0.18834010  0.59576181  1
  H  H11  1  0.67638851  0.88747746  0.47106411  1
  H  H12  1  0.63676049  0.25742280  0.26399858  1
  H  H13  1  0.89764161  0.00433988  0.87403897  1
  H  H14  1  0.91853297  0.98983058  0.69681056  1
  H  H15  1  0.79103539  0.13902643  0.37856469  1
  H  H16  1  0.88921868  0.51488335  0.36908273  1
  H  H17  1  0.95496935  0.72735437  0.43803486  1
  C  C18  1  0.14131919  0.87155688  0.82270332  1
  C  C19  1  0.39082363  0.78210215  0.98722249  1
  C  C20  1  0.30301310  0.52087380  0.25055918  1
  C  C21  1  0.37167071  0.36166227  0.61862033  1
  C  C22  1  0.62832929  0.63833773  0.38137967  1
  C  C23  1  0.69698690  0.47912620  0.74944082  1
  C  C24  1  0.60917637  0.21789785  0.01277751  1
  C  C25  1  0.85868081  0.12844312  0.17729668  1
  N  N26  1  0.20198441  0.83616999  0.95559298  1
  N  N27  1  0.25070457  0.82719774  0.72093177  1
  N  N28  1  0.16103561  0.38357467  0.57996795  1
  N  N29  1  0.03431812  0.04692446  0.20512805  1
  N  N30  1  0.12675505  0.52942943  0.18998515  1
  N  N31  1  0.43885829  0.26466511  0.97701195  1
  N  N32  1  0.50556819  0.49991251  0.68952895  1
  N  N33  1  0.43475669  0.20896581  0.58616936  1
  N  N34  1  0.56524331  0.79103419  0.41383064  1
  N  N35  1  0.49443181  0.50008749  0.31047105  1
  N  N36  1  0.56114171  0.73533489  0.02298805  1
  N  N37  1  0.87324495  0.47057057  0.81001485  1
  N  N38  1  0.96568188  0.95307554  0.79487195  1
  N  N39  1  0.83896439  0.61642533  0.42003205  1
  N  N40  1  0.74929543  0.17280226  0.27906823  1
  N  N41  1  0.79801559  0.16383001  0.04440702  1
  F  F42  1  0.17330089  0.90481964  0.44747895  1
  F  F43  1  0.82669911  0.09518036  0.55252105  1
