# generated using pymatgen
data_YbVO3
_symmetry_space_group_name_H-M   'P 1'
_cell_length_a   5.27259530
_cell_length_b   5.45927487
_cell_length_c   7.55483833
_cell_angle_alpha   90.00000000
_cell_angle_beta   90.00000000
_cell_angle_gamma   90.00000000
_symmetry_Int_Tables_number   1
_chemical_formula_structural   YbVO3
_chemical_formula_sum   'Yb4 V4 O12'
_cell_volume   217.46259915
_cell_formula_units_Z   4
loop_
 _symmetry_equiv_pos_site_id
 _symmetry_equiv_pos_as_xyz
  1  'x, y, z'
loop_
 _atom_site_type_symbol
 _atom_site_label
 _atom_site_symmetry_multiplicity
 _atom_site_fract_x
 _atom_site_fract_y
 _atom_site_fract_z
 _atom_site_occupancy
  Yb  Yb0  1  0.51326105  0.55704076  0.25000000  1
  Yb  Yb1  1  0.98673895  0.05704076  0.25000000  1
  Yb  Yb2  1  0.48673895  0.44295924  0.75000000  1
  Yb  Yb3  1  0.01326105  0.94295924  0.75000000  1
  V  V4  1  0.50000000  0.00000000  0.50000000  1
  V  V5  1  0.00000000  0.50000000  0.00000000  1
  V  V6  1  0.50000000  0.00000000  0.00000000  1
  V  V7  1  0.00000000  0.50000000  0.50000000  1
  O  O8  1  0.79197550  0.79909846  0.04211364  1
  O  O9  1  0.70802450  0.29909846  0.45788636  1
  O  O10  1  0.91255808  0.51980987  0.75000000  1
  O  O11  1  0.70802450  0.29909846  0.04211364  1
  O  O12  1  0.29197550  0.70090154  0.54211364  1
  O  O13  1  0.08744192  0.48019013  0.25000000  1
  O  O14  1  0.41255808  0.98019013  0.25000000  1
  O  O15  1  0.58744192  0.01980987  0.75000000  1
  O  O16  1  0.20802450  0.20090154  0.95788636  1
  O  O17  1  0.79197550  0.79909846  0.45788636  1
  O  O18  1  0.20802450  0.20090154  0.54211364  1
  O  O19  1  0.29197550  0.70090154  0.95788636  1
