# generated using pymatgen
data_Ba7Cu3H17
_symmetry_space_group_name_H-M   'P 1'
_cell_length_a   11.90338698
_cell_length_b   11.90338731
_cell_length_c   7.44798539
_cell_angle_alpha   89.99853337
_cell_angle_beta   89.99853335
_cell_angle_gamma   120.00637115
_symmetry_Int_Tables_number   1
_chemical_formula_structural   Ba7Cu3H17
_chemical_formula_sum   'Ba14 Cu6 H34'
_cell_volume   913.86633577
_cell_formula_units_Z   2
loop_
 _symmetry_equiv_pos_site_id
 _symmetry_equiv_pos_as_xyz
  1  'x, y, z'
loop_
 _atom_site_type_symbol
 _atom_site_label
 _atom_site_symmetry_multiplicity
 _atom_site_fract_x
 _atom_site_fract_y
 _atom_site_fract_z
 _atom_site_occupancy
  Ba  Ba0  1  0.87844282  0.15325614  0.67281666  1
  Ba  Ba1  1  0.84665522  0.72522645  0.67270801  1
  Ba  Ba2  1  0.27483475  0.12162640  0.67275234  1
  Ba  Ba3  1  0.15325614  0.87844282  0.17281666  1
  Ba  Ba4  1  0.72522645  0.84665522  0.17270801  1
  Ba  Ba5  1  0.12162640  0.27483475  0.17275234  1
  Ba  Ba6  1  0.45294618  0.55735523  0.53306334  1
  Ba  Ba7  1  0.44256351  0.89561933  0.53296353  1
  Ba  Ba8  1  0.10442945  0.54709270  0.53303845  1
  Ba  Ba9  1  0.55735523  0.45294618  0.03306334  1
  Ba  Ba10  1  0.89561933  0.44256351  0.03296353  1
  Ba  Ba11  1  0.54709270  0.10442945  0.03303845  1
  Ba  Ba12  1  0.66666929  0.33334549  0.51538655  1
  Ba  Ba13  1  0.33334549  0.66666929  0.01538655  1
  Cu  Cu14  1  0.65629536  0.83686907  0.75874196  1
  Cu  Cu15  1  0.16325319  0.81973275  0.75889361  1
  Cu  Cu16  1  0.18034004  0.34365360  0.75875868  1
  Cu  Cu17  1  0.83686907  0.65629536  0.25874196  1
  Cu  Cu18  1  0.81973275  0.16325319  0.25889361  1
  Cu  Cu19  1  0.34365360  0.18034004  0.25875868  1
  H  H20  1  0.58616742  0.90778186  0.86334436  1
  H  H21  1  0.09236408  0.67876155  0.86306080  1
  H  H22  1  0.32125102  0.41363530  0.86309234  1
  H  H23  1  0.90778186  0.58616742  0.36334436  1
  H  H24  1  0.67876155  0.09236408  0.36306080  1
  H  H25  1  0.41363530  0.32125102  0.36309234  1
  H  H26  1  0.63764532  0.81995023  0.53854400  1
  H  H27  1  0.18003827  0.81773965  0.53885150  1
  H  H28  1  0.18226508  0.36233591  0.53875956  1
  H  H29  1  0.81995023  0.63764532  0.03854400  1
  H  H30  1  0.81773965  0.18003827  0.03885150  1
  H  H31  1  0.36233591  0.18226508  0.03875956  1
  H  H32  1  0.60387392  0.69286401  0.84919174  1
  H  H33  1  0.30745464  0.91130253  0.84934632  1
  H  H34  1  0.08870524  0.39622258  0.84938211  1
  H  H35  1  0.69286401  0.60387392  0.34919174  1
  H  H36  1  0.91130253  0.30745464  0.34934632  1
  H  H37  1  0.39622258  0.08870524  0.34938211  1
  H  H38  1  0.81220642  0.91467325  0.81252478  1
  H  H39  1  0.08516779  0.89776511  0.81259526  1
  H  H40  1  0.10229845  0.18755918  0.81256652  1
  H  H41  1  0.91467325  0.81220642  0.31252478  1
  H  H42  1  0.89776511  0.08516779  0.31259526  1
  H  H43  1  0.18755918  0.10229845  0.31256652  1
  H  H44  1  0.87671558  0.37666138  0.69005333  1
  H  H45  1  0.62333219  0.50005747  0.69009228  1
  H  H46  1  0.49995739  0.12330105  0.69008329  1
  H  H47  1  0.37666138  0.87671558  0.19005333  1
  H  H48  1  0.50005747  0.62333219  0.19009228  1
  H  H49  1  0.12330105  0.49995739  0.19008329  1
  H  H50  1  0.66667484  0.33333478  0.18006533  1
  H  H51  1  0.33333478  0.66667484  0.68006533  1
  H  H52  1  0.66667846  0.33335110  0.87132335  1
  H  H53  1  0.33335110  0.66667846  0.37132335  1
