# generated using pymatgen
data_K3H3Pd
_symmetry_space_group_name_H-M   'P 1'
_cell_length_a   10.90940784
_cell_length_b   10.90940784
_cell_length_c   10.37252476
_cell_angle_alpha   90.00000000
_cell_angle_beta   90.00000000
_cell_angle_gamma   90.00000000
_symmetry_Int_Tables_number   1
_chemical_formula_structural   K3H3Pd
_chemical_formula_sum   'K24 H24 Pd8'
_cell_volume   1234.48789534
_cell_formula_units_Z   8
loop_
 _symmetry_equiv_pos_site_id
 _symmetry_equiv_pos_as_xyz
  1  'x, y, z'
loop_
 _atom_site_type_symbol
 _atom_site_label
 _atom_site_symmetry_multiplicity
 _atom_site_fract_x
 _atom_site_fract_y
 _atom_site_fract_z
 _atom_site_occupancy
  K  K0  1  0.20580109  0.79419891  0.50000000  1
  K  K1  1  0.79419891  0.20580109  0.50000000  1
  K  K2  1  0.29419891  0.29419891  0.00000000  1
  K  K3  1  0.70580109  0.70580109  0.00000000  1
  K  K4  1  0.79939281  0.79939281  0.50000000  1
  K  K5  1  0.20060719  0.20060719  0.50000000  1
  K  K6  1  0.70060719  0.29939281  0.00000000  1
  K  K7  1  0.29939281  0.70060719  0.00000000  1
  K  K8  1  0.24910097  0.50352170  0.29221791  1
  K  K9  1  0.75089903  0.49647830  0.29221791  1
  K  K10  1  0.25089903  0.00352170  0.79221791  1
  K  K11  1  0.74910097  0.99647830  0.79221791  1
  K  K12  1  0.75089903  0.49647830  0.70778209  1
  K  K13  1  0.24910097  0.50352170  0.70778209  1
  K  K14  1  0.74910097  0.99647830  0.20778209  1
  K  K15  1  0.25089903  0.00352170  0.20778209  1
  K  K16  1  0.50352170  0.24910097  0.29221791  1
  K  K17  1  0.49647830  0.75089903  0.29221791  1
  K  K18  1  0.00352170  0.25089903  0.79221791  1
  K  K19  1  0.99647830  0.74910097  0.79221791  1
  K  K20  1  0.49647830  0.75089903  0.70778209  1
  K  K21  1  0.50352170  0.24910097  0.70778209  1
  K  K22  1  0.99647830  0.74910097  0.20778209  1
  K  K23  1  0.00352170  0.25089903  0.20778209  1
  H  H24  1  0.24643412  0.75356588  0.24424935  1
  H  H25  1  0.75356588  0.24643412  0.24424935  1
  H  H26  1  0.25356588  0.25356588  0.74424935  1
  H  H27  1  0.74643412  0.74643412  0.74424935  1
  H  H28  1  0.75356588  0.24643412  0.75575065  1
  H  H29  1  0.24643412  0.75356588  0.75575065  1
  H  H30  1  0.74643412  0.74643412  0.25575065  1
  H  H31  1  0.25356588  0.25356588  0.25575065  1
  H  H32  1  0.39070298  0.60929702  0.50000000  1
  H  H33  1  0.60929702  0.39070298  0.50000000  1
  H  H34  1  0.10929702  0.10929702  0.00000000  1
  H  H35  1  0.89070298  0.89070298  0.00000000  1
  H  H36  1  0.50000000  0.50000000  0.16293578  1
  H  H37  1  0.00000000  0.00000000  0.66293578  1
  H  H38  1  0.50000000  0.50000000  0.83706422  1
  H  H39  1  0.00000000  0.00000000  0.33706422  1
  H  H40  1  0.00045267  0.34626927  0.50000000  1
  H  H41  1  0.99954733  0.65373073  0.50000000  1
  H  H42  1  0.49954733  0.84626927  0.00000000  1
  H  H43  1  0.50045267  0.15373073  0.00000000  1
  H  H44  1  0.34626927  0.00045267  0.50000000  1
  H  H45  1  0.65373073  0.99954733  0.50000000  1
  H  H46  1  0.84626927  0.49954733  0.00000000  1
  H  H47  1  0.15373073  0.50045267  0.00000000  1
  Pd  Pd48  1  0.50000000  0.50000000  0.50000000  1
  Pd  Pd49  1  0.00000000  0.00000000  0.00000000  1
  Pd  Pd50  1  0.50000000  0.50000000  0.00000000  1
  Pd  Pd51  1  0.00000000  0.00000000  0.50000000  1
  Pd  Pd52  1  0.00000000  0.50000000  0.50000000  1
  Pd  Pd53  1  0.50000000  0.00000000  0.00000000  1
  Pd  Pd54  1  0.50000000  0.00000000  0.50000000  1
  Pd  Pd55  1  0.00000000  0.50000000  0.00000000  1
