# generated using pymatgen
data_KNaReH9
_symmetry_space_group_name_H-M   'P 1'
_cell_length_a   9.06409951
_cell_length_b   5.62777663
_cell_length_c   10.02927333
_cell_angle_alpha   90.00000000
_cell_angle_beta   90.00000000
_cell_angle_gamma   90.00000000
_symmetry_Int_Tables_number   1
_chemical_formula_structural   KNaReH9
_chemical_formula_sum   'K4 Na4 Re4 H36'
_cell_volume   511.60052780
_cell_formula_units_Z   4
loop_
 _symmetry_equiv_pos_site_id
 _symmetry_equiv_pos_as_xyz
  1  'x, y, z'
loop_
 _atom_site_type_symbol
 _atom_site_label
 _atom_site_symmetry_multiplicity
 _atom_site_fract_x
 _atom_site_fract_y
 _atom_site_fract_z
 _atom_site_occupancy
  K  K0  1  0.52555256  0.25000000  0.82240780  1
  K  K1  1  0.02555256  0.25000000  0.67759220  1
  K  K2  1  0.47444744  0.75000000  0.17759220  1
  K  K3  1  0.97444744  0.75000000  0.32240780  1
  Na  Na4  1  0.64028031  0.25000000  0.42560878  1
  Na  Na5  1  0.14028031  0.25000000  0.07439122  1
  Na  Na6  1  0.35971969  0.75000000  0.57439122  1
  Na  Na7  1  0.85971969  0.75000000  0.92560878  1
  Re  Re8  1  0.77347887  0.25000000  0.11398096  1
  Re  Re9  1  0.27347887  0.25000000  0.38601904  1
  Re  Re10  1  0.22652113  0.75000000  0.88601904  1
  Re  Re11  1  0.72652113  0.75000000  0.61398096  1
  H  H12  1  0.90279964  0.03360902  0.09384484  1
  H  H13  1  0.40279964  0.46639098  0.40615516  1
  H  H14  1  0.09720036  0.53360902  0.90615516  1
  H  H15  1  0.59720036  0.96639098  0.59384484  1
  H  H16  1  0.09720036  0.96639098  0.90615516  1
  H  H17  1  0.59720036  0.53360902  0.59384484  1
  H  H18  1  0.90279964  0.46639098  0.09384484  1
  H  H19  1  0.40279964  0.03360902  0.40615516  1
  H  H20  1  0.73032025  0.03814993  0.23079192  1
  H  H21  1  0.23032025  0.46185007  0.26920808  1
  H  H22  1  0.26967975  0.53814993  0.76920808  1
  H  H23  1  0.76967975  0.96185007  0.73079192  1
  H  H24  1  0.26967975  0.96185007  0.76920808  1
  H  H25  1  0.76967975  0.53814993  0.73079192  1
  H  H26  1  0.73032025  0.46185007  0.23079192  1
  H  H27  1  0.23032025  0.03814993  0.26920808  1
  H  H28  1  0.68533602  0.03656835  0.02195396  1
  H  H29  1  0.18533602  0.46343165  0.47804604  1
  H  H30  1  0.31466398  0.53656835  0.97804604  1
  H  H31  1  0.81466398  0.96343165  0.52195396  1
  H  H32  1  0.31466398  0.96343165  0.97804604  1
  H  H33  1  0.81466398  0.53656835  0.52195396  1
  H  H34  1  0.68533602  0.46343165  0.02195396  1
  H  H35  1  0.18533602  0.03656835  0.47804604  1
  H  H36  1  0.89572419  0.25000000  0.24004806  1
  H  H37  1  0.39572419  0.25000000  0.25995194  1
  H  H38  1  0.10427581  0.75000000  0.75995194  1
  H  H39  1  0.60427581  0.75000000  0.74004806  1
  H  H40  1  0.84218521  0.25000000  0.95810736  1
  H  H41  1  0.34218521  0.25000000  0.54189264  1
  H  H42  1  0.15781479  0.75000000  0.04189264  1
  H  H43  1  0.65781479  0.75000000  0.45810736  1
  H  H44  1  0.59033997  0.25000000  0.14320827  1
  H  H45  1  0.09033997  0.25000000  0.35679173  1
  H  H46  1  0.40966003  0.75000000  0.85679173  1
  H  H47  1  0.90966003  0.75000000  0.64320827  1
