# generated using pymatgen
data_Ag2PHO4
_symmetry_space_group_name_H-M   'P 1'
_cell_length_a   6.28261851
_cell_length_b   6.28261828
_cell_length_c   9.08983088
_cell_angle_alpha   90.00000000
_cell_angle_beta   90.00000000
_cell_angle_gamma   120.00000120
_symmetry_Int_Tables_number   1
_chemical_formula_structural   Ag2PHO4
_chemical_formula_sum   'Ag6 P3 H3 O12'
_cell_volume   310.71898737
_cell_formula_units_Z   3
loop_
 _symmetry_equiv_pos_site_id
 _symmetry_equiv_pos_as_xyz
  1  'x, y, z'
loop_
 _atom_site_type_symbol
 _atom_site_label
 _atom_site_symmetry_multiplicity
 _atom_site_fract_x
 _atom_site_fract_y
 _atom_site_fract_z
 _atom_site_occupancy
  Ag  Ag0  1  0.15215924  0.07608359  0.00002860  1
  Ag  Ag1  1  0.92391641  0.07607565  0.33336260  1
  Ag  Ag2  1  0.92392435  0.84784076  0.66669560  1
  Ag  Ag3  1  0.59557362  0.79778343  0.00000968  1
  Ag  Ag4  1  0.20221657  0.79779019  0.33334368  1
  Ag  Ag5  1  0.20220981  0.40442638  0.66667668  1
  P  P6  1  0.97456129  0.48729237  0.00000463  1
  P  P7  1  0.51270763  0.48726892  0.33333863  1
  P  P8  1  0.51273108  0.02543871  0.66667163  1
  H  H9  1  0.64055105  0.28100581  0.16664739  1
  H  H10  1  0.71899419  0.35954524  0.49998139  1
  H  H11  1  0.64045476  0.35944895  0.83331439  1
  O  O12  1  0.13680203  0.40566519  0.91628690  1
  O  O13  1  0.59433481  0.73113684  0.24962090  1
  O  O14  1  0.26886316  0.86319797  0.58295390  1
  O  O15  1  0.13680623  0.73113067  0.08374854  1
  O  O16  1  0.59432445  0.86319377  0.75041454  1
  O  O17  1  0.26886933  0.40567555  0.41708154  1
  O  O18  1  0.80693980  0.27201876  0.10696316  1
  O  O19  1  0.72798124  0.53492104  0.44029716  1
  O  O20  1  0.46507896  0.19306020  0.77363016  1
  O  O21  1  0.80697005  0.53494991  0.89304311  1
  O  O22  1  0.72797987  0.19302995  0.55970911  1
  O  O23  1  0.46505009  0.27202013  0.22637611  1
