# generated using pymatgen
data_K2SrTa2O7
_symmetry_space_group_name_H-M   'P 1'
_cell_length_a   4.01787117
_cell_length_b   4.01787117
_cell_length_c   11.40392275
_cell_angle_alpha   100.14627485
_cell_angle_beta   100.14627487
_cell_angle_gamma   90.00000008
_symmetry_Int_Tables_number   1
_chemical_formula_structural   K2SrTa2O7
_chemical_formula_sum   'K2 Sr1 Ta2 O7'
_cell_volume   178.29223565
_cell_formula_units_Z   1
loop_
 _symmetry_equiv_pos_site_id
 _symmetry_equiv_pos_as_xyz
  1  'x, y, z'
loop_
 _atom_site_type_symbol
 _atom_site_label
 _atom_site_symmetry_multiplicity
 _atom_site_fract_x
 _atom_site_fract_y
 _atom_site_fract_z
 _atom_site_occupancy
  O  O0  1  0.50000000  0.50000000  0.00000000  1
  O  O1  1  0.31908851  0.31908851  0.63817703  1
  O  O2  1  0.68091149  0.68091149  0.36182297  1
  O  O3  1  0.41261671  0.91261671  0.82523341  1
  O  O4  1  0.91261671  0.41261671  0.82523341  1
  O  O5  1  0.08738329  0.58738329  0.17476659  1
  O  O6  1  0.58738329  0.08738329  0.17476659  1
  K  K7  1  0.80682956  0.80682956  0.61365911  1
  K  K8  1  0.19317044  0.19317044  0.38634089  1
  Sr  Sr9  1  0.00000000  0.00000000  0.00000000  1
  Ta  Ta10  1  0.59606608  0.59606608  0.19213216  1
  Ta  Ta11  1  0.40393392  0.40393392  0.80786784  1
