# generated using pymatgen
data_Na3H6Ir
_symmetry_space_group_name_H-M   'P 1'
_cell_length_a   9.33519516
_cell_length_b   5.26095387
_cell_length_c   9.65379702
_cell_angle_alpha   90.00000000
_cell_angle_beta   90.00000000
_cell_angle_gamma   90.00000000
_symmetry_Int_Tables_number   1
_chemical_formula_structural   Na3H6Ir
_chemical_formula_sum   'Na12 H24 Ir4'
_cell_volume   474.11757952
_cell_formula_units_Z   4
loop_
 _symmetry_equiv_pos_site_id
 _symmetry_equiv_pos_as_xyz
  1  'x, y, z'
loop_
 _atom_site_type_symbol
 _atom_site_label
 _atom_site_symmetry_multiplicity
 _atom_site_fract_x
 _atom_site_fract_y
 _atom_site_fract_z
 _atom_site_occupancy
  Na  Na0  1  0.54701474  0.25000000  0.87182401  1
  Na  Na1  1  0.04701474  0.25000000  0.62817599  1
  Na  Na2  1  0.45298526  0.75000000  0.12817599  1
  Na  Na3  1  0.95298526  0.75000000  0.37182401  1
  Na  Na4  1  0.89453095  0.25000000  0.96391777  1
  Na  Na5  1  0.39453095  0.25000000  0.53608223  1
  Na  Na6  1  0.10546905  0.75000000  0.03608223  1
  Na  Na7  1  0.60546905  0.75000000  0.46391777  1
  Na  Na8  1  0.71715458  0.25000000  0.24883770  1
  Na  Na9  1  0.21715458  0.25000000  0.25116230  1
  Na  Na10  1  0.28284542  0.75000000  0.75116230  1
  Na  Na11  1  0.78284542  0.75000000  0.74883770  1
  H  H12  1  0.83120943  0.47745930  0.53092451  1
  H  H13  1  0.33120943  0.02254070  0.96907549  1
  H  H14  1  0.16879057  0.97745930  0.46907549  1
  H  H15  1  0.66879057  0.52254070  0.03092451  1
  H  H16  1  0.16879057  0.52254070  0.46907549  1
  H  H17  1  0.66879057  0.97745930  0.03092451  1
  H  H18  1  0.83120943  0.02254070  0.53092451  1
  H  H19  1  0.33120943  0.47745930  0.96907549  1
  H  H20  1  0.61006288  0.46984215  0.66248783  1
  H  H21  1  0.11006288  0.03015785  0.83751217  1
  H  H22  1  0.38993712  0.96984215  0.33751217  1
  H  H23  1  0.88993712  0.53015785  0.16248783  1
  H  H24  1  0.38993712  0.53015785  0.33751217  1
  H  H25  1  0.88993712  0.96984215  0.16248783  1
  H  H26  1  0.61006288  0.03015785  0.66248783  1
  H  H27  1  0.11006288  0.46984215  0.83751217  1
  H  H28  1  0.62278471  0.25000000  0.45283620  1
  H  H29  1  0.12278471  0.25000000  0.04716380  1
  H  H30  1  0.37721529  0.75000000  0.54716380  1
  H  H31  1  0.87721529  0.75000000  0.95283620  1
  H  H32  1  0.81915179  0.25000000  0.74406254  1
  H  H33  1  0.31915179  0.25000000  0.75593746  1
  H  H34  1  0.18084821  0.75000000  0.25593746  1
  H  H35  1  0.68084821  0.75000000  0.24406254  1
  Ir  Ir36  1  0.72257054  0.25000000  0.59694255  1
  Ir  Ir37  1  0.22257054  0.25000000  0.90305745  1
  Ir  Ir38  1  0.27742946  0.75000000  0.40305745  1
  Ir  Ir39  1  0.77742946  0.75000000  0.09694255  1
