# generated using pymatgen
data_Na4Al3Ge3NO14
_symmetry_space_group_name_H-M   'P 1'
_cell_length_a   9.20149581
_cell_length_b   9.20149581
_cell_length_c   9.18401176
_cell_angle_alpha   90.06619695
_cell_angle_beta   89.93380305
_cell_angle_gamma   89.99262085
_symmetry_Int_Tables_number   1
_chemical_formula_structural   Na4Al3Ge3NO14
_chemical_formula_sum   'Na8 Al6 Ge6 N2 O28'
_cell_volume   777.58650156
_cell_formula_units_Z   2
loop_
 _symmetry_equiv_pos_site_id
 _symmetry_equiv_pos_as_xyz
  1  'x, y, z'
loop_
 _atom_site_type_symbol
 _atom_site_label
 _atom_site_symmetry_multiplicity
 _atom_site_fract_x
 _atom_site_fract_y
 _atom_site_fract_z
 _atom_site_occupancy
  Na  Na0  1  0.18037865  0.18008160  0.18078721  1
  Na  Na1  1  0.18087209  0.81948627  0.81877486  1
  Na  Na2  1  0.31991840  0.31962135  0.68078721  1
  Na  Na3  1  0.32106911  0.68096712  0.31988367  1
  Na  Na4  1  0.68051373  0.31912791  0.31877486  1
  Na  Na5  1  0.67922705  0.68131896  0.68047876  1
  Na  Na6  1  0.81903288  0.17893089  0.81988367  1
  Na  Na7  1  0.81868104  0.82077295  0.18047876  1
  Al  Al8  1  0.99968942  0.49983018  0.24999608  1
  Al  Al9  1  0.24995129  0.99991386  0.50011090  1
  Al  Al10  1  0.50010156  0.74987685  0.99988319  1
  Al  Al11  1  0.50008614  0.25004871  0.00011090  1
  Al  Al12  1  0.75012315  0.99989844  0.49988319  1
  Al  Al13  1  0.00016982  0.50031058  0.74999608  1
  Ge  Ge14  1  -0.00005731  0.24966928  0.49959838  1
  Ge  Ge15  1  0.25033072  0.50005731  0.99959838  1
  Ge  Ge16  1  0.50007057  0.99968792  0.75000224  1
  Ge  Ge17  1  0.50031208  -0.00007057  0.25000224  1
  Ge  Ge18  1  0.74964159  0.50006303  0.00038934  1
  Ge  Ge19  1  -0.00006303  0.75035841  0.50038934  1
  N  N20  1  0.03199157  0.00058319  0.00009128  1
  N  N21  1  0.49941681  0.46800843  0.50009128  1
  O  O22  1  0.06936520  0.35436589  0.64511617  1
  O  O23  1  0.06988464  0.64537641  0.35488834  1
  O  O24  1  0.14563411  0.43063480  0.14511617  1
  O  O25  1  0.14472719  0.56955181  0.85564121  1
  O  O26  1  0.14565316  0.14563433  0.43112019  1
  O  O27  1  0.14521769  0.85461105  0.56886170  1
  O  O28  1  0.35502525  0.06956203  0.64550176  1
  O  O29  1  0.35483641  0.93057402  0.35433536  1
  O  O30  1  0.35436567  0.35434684  0.93112019  1
  O  O31  1  0.35436214  0.64526772  0.06950739  1
  O  O32  1  0.43043797  0.14497475  0.14550176  1
  O  O33  1  0.43040395  0.85545179  0.85522646  1
  O  O34  1  0.44221734  0.54190725  0.60208960  1
  O  O35  1  0.55835240  0.54145687  0.39779920  1
  O  O36  1  0.56942598  0.14516359  0.85433536  1
  O  O37  1  0.56942863  0.85525709  0.14498772  1
  O  O38  1  0.64538895  0.35478231  0.06886170  1
  O  O39  1  0.64540931  0.64480437  0.93055014  1
  O  O40  1  0.64454821  0.06959605  0.35522646  1
  O  O41  1  0.64474291  0.93057137  0.64498772  1
  O  O42  1  0.85473228  0.14563786  0.56950739  1
  O  O43  1  0.85519563  0.85459069  0.43055014  1
  O  O44  1  0.85551340  0.57003346  0.14437885  1
  O  O45  1  0.85462359  0.43011536  0.85488834  1
  O  O46  1  0.93044819  0.35527281  0.35564121  1
  O  O47  1  0.92996654  0.64448660  0.64437885  1
  O  O48  1  0.95854313  0.94164760  0.89779920  1
  O  O49  1  0.95809275  0.05778266  0.10208960  1
