# generated using pymatgen
data_H4SeO5
_symmetry_space_group_name_H-M   'P 1'
_cell_length_a   8.79471839
_cell_length_b   10.56793411
_cell_length_c   9.24845433
_cell_angle_alpha   90.00000000
_cell_angle_beta   90.00000000
_cell_angle_gamma   90.00000000
_symmetry_Int_Tables_number   1
_chemical_formula_structural   H4SeO5
_chemical_formula_sum   'H32 Se8 O40'
_cell_volume   859.56988360
_cell_formula_units_Z   8
loop_
 _symmetry_equiv_pos_site_id
 _symmetry_equiv_pos_as_xyz
  1  'x, y, z'
loop_
 _atom_site_type_symbol
 _atom_site_label
 _atom_site_symmetry_multiplicity
 _atom_site_fract_x
 _atom_site_fract_y
 _atom_site_fract_z
 _atom_site_occupancy
  H  H0  1  0.77783357  0.45621982  0.27399179  1
  H  H1  1  0.27783357  0.04378018  0.72600821  1
  H  H2  1  0.22216643  0.95621982  0.22600821  1
  H  H3  1  0.72216643  0.54378018  0.77399179  1
  H  H4  1  0.22216643  0.54378018  0.72600821  1
  H  H5  1  0.72216643  0.95621982  0.27399179  1
  H  H6  1  0.77783357  0.04378018  0.77399179  1
  H  H7  1  0.27783357  0.45621982  0.22600821  1
  H  H8  1  0.82566748  0.46706867  0.09904226  1
  H  H9  1  0.32566748  0.03293133  0.90095774  1
  H  H10  1  0.17433252  0.96706867  0.40095774  1
  H  H11  1  0.67433252  0.53293133  0.59904226  1
  H  H12  1  0.17433252  0.53293133  0.90095774  1
  H  H13  1  0.67433252  0.96706867  0.09904226  1
  H  H14  1  0.82566748  0.03293133  0.59904226  1
  H  H15  1  0.32566748  0.46706867  0.40095774  1
  H  H16  1  0.79453348  0.07444640  0.17085727  1
  H  H17  1  0.29453348  0.42555360  0.82914273  1
  H  H18  1  0.20546652  0.57444640  0.32914273  1
  H  H19  1  0.70546652  0.92555360  0.67085727  1
  H  H20  1  0.20546652  0.92555360  0.82914273  1
  H  H21  1  0.70546652  0.57444640  0.17085727  1
  H  H22  1  0.79453348  0.42555360  0.67085727  1
  H  H23  1  0.29453348  0.07444640  0.32914273  1
  H  H24  1  0.54176321  0.25922909  0.23249423  1
  H  H25  1  0.04176321  0.24077091  0.76750577  1
  H  H26  1  0.45823679  0.75922909  0.26750577  1
  H  H27  1  0.95823679  0.74077091  0.73249423  1
  H  H28  1  0.45823679  0.74077091  0.76750577  1
  H  H29  1  0.95823679  0.75922909  0.23249423  1
  H  H30  1  0.54176321  0.24077091  0.73249423  1
  H  H31  1  0.04176321  0.25922909  0.26750577  1
  Se  Se32  1  0.89010454  0.26707151  0.46511624  1
  Se  Se33  1  0.39010454  0.23292849  0.53488376  1
  Se  Se34  1  0.10989546  0.76707151  0.03488376  1
  Se  Se35  1  0.60989546  0.73292849  0.96511624  1
  Se  Se36  1  0.10989546  0.73292849  0.53488376  1
  Se  Se37  1  0.60989546  0.76707151  0.46511624  1
  Se  Se38  1  0.89010454  0.23292849  0.96511624  1
  Se  Se39  1  0.39010454  0.26707151  0.03488376  1
  O  O40  1  0.74937803  0.34580930  0.38838611  1
  O  O41  1  0.24937803  0.15419070  0.61161389  1
  O  O42  1  0.25062197  0.84580930  0.11161389  1
  O  O43  1  0.75062197  0.65419070  0.88838611  1
  O  O44  1  0.25062197  0.65419070  0.61161389  1
  O  O45  1  0.75062197  0.84580930  0.38838611  1
  O  O46  1  0.74937803  0.15419070  0.88838611  1
  O  O47  1  0.24937803  0.34580930  0.11161389  1
  O  O48  1  0.86971941  0.11159447  0.46315905  1
  O  O49  1  0.36971941  0.38840553  0.53684095  1
  O  O50  1  0.13028059  0.61159447  0.03684095  1
  O  O51  1  0.63028059  0.88840553  0.96315905  1
  O  O52  1  0.13028059  0.88840553  0.53684095  1
  O  O53  1  0.63028059  0.61159447  0.46315905  1
  O  O54  1  0.86971941  0.38840553  0.96315905  1
  O  O55  1  0.36971941  0.11159447  0.03684095  1
  O  O56  1  0.92923737  0.32631700  0.62841752  1
  O  O57  1  0.42923737  0.17368300  0.37158248  1
  O  O58  1  0.07076263  0.82631700  0.87158248  1
  O  O59  1  0.57076263  0.67368300  0.12841752  1
  O  O60  1  0.07076263  0.67368300  0.37158248  1
  O  O61  1  0.57076263  0.82631700  0.62841752  1
  O  O62  1  0.92923737  0.17368300  0.12841752  1
  O  O63  1  0.42923737  0.32631700  0.87158248  1
  O  O64  1  0.05638273  0.30004842  0.36445202  1
  O  O65  1  0.55638273  0.19995158  0.63554798  1
  O  O66  1  0.94361727  0.80004842  0.13554798  1
  O  O67  1  0.44361727  0.69995158  0.86445202  1
  O  O68  1  0.94361727  0.69995158  0.63554798  1
  O  O69  1  0.44361727  0.80004842  0.36445202  1
  O  O70  1  0.05638273  0.19995158  0.86445202  1
  O  O71  1  0.55638273  0.30004842  0.13554798  1
  O  O72  1  0.70257628  0.01779671  0.19054946  1
  O  O73  1  0.20257628  0.48220329  0.80945054  1
  O  O74  1  0.29742372  0.51779671  0.30945054  1
  O  O75  1  0.79742372  0.98220329  0.69054946  1
  O  O76  1  0.29742372  0.98220329  0.80945054  1
  O  O77  1  0.79742372  0.51779671  0.19054946  1
  O  O78  1  0.70257628  0.48220329  0.69054946  1
  O  O79  1  0.20257628  0.01779671  0.30945054  1
