# generated using pymatgen
data_Li2H4(SO4)3
_symmetry_space_group_name_H-M   'P 1'
_cell_length_a   17.73473403
_cell_length_b   5.45725723
_cell_length_c   11.05455677
_cell_angle_alpha   90.00000000
_cell_angle_beta   90.00000000
_cell_angle_gamma   90.00000000
_symmetry_Int_Tables_number   1
_chemical_formula_structural   Li2H4(SO4)3
_chemical_formula_sum   'Li8 H16 S12 O48'
_cell_volume   1069.89322875
_cell_formula_units_Z   4
loop_
 _symmetry_equiv_pos_site_id
 _symmetry_equiv_pos_as_xyz
  1  'x, y, z'
loop_
 _atom_site_type_symbol
 _atom_site_label
 _atom_site_symmetry_multiplicity
 _atom_site_fract_x
 _atom_site_fract_y
 _atom_site_fract_z
 _atom_site_occupancy
  Li  Li0  1  0.59669861  0.22920643  0.51725056  1
  Li  Li1  1  0.90330139  0.27079357  0.51725056  1
  Li  Li2  1  0.09669861  0.77079357  0.98274944  1
  Li  Li3  1  0.40330139  0.72920643  0.98274944  1
  Li  Li4  1  0.40330139  0.77079357  0.48274944  1
  Li  Li5  1  0.09669861  0.72920643  0.48274944  1
  Li  Li6  1  0.90330139  0.22920643  0.01725056  1
  Li  Li7  1  0.59669861  0.27079357  0.01725056  1
  H  H8  1  0.44240666  0.11110691  0.81068287  1
  H  H9  1  0.05759334  0.38889309  0.81068287  1
  H  H10  1  0.94240666  0.88889309  0.68931713  1
  H  H11  1  0.55759334  0.61110691  0.68931713  1
  H  H12  1  0.55759334  0.88889309  0.18931713  1
  H  H13  1  0.94240666  0.61110691  0.18931713  1
  H  H14  1  0.05759334  0.11110691  0.31068287  1
  H  H15  1  0.44240666  0.38889309  0.31068287  1
  H  H16  1  0.30270021  0.50889838  0.67317541  1
  H  H17  1  0.19729979  0.99110162  0.67317541  1
  H  H18  1  0.80270021  0.49110162  0.82682459  1
  H  H19  1  0.69729979  0.00889838  0.82682459  1
  H  H20  1  0.69729979  0.49110162  0.32682459  1
  H  H21  1  0.80270021  0.00889838  0.32682459  1
  H  H22  1  0.19729979  0.50889838  0.17317541  1
  H  H23  1  0.30270021  0.99110162  0.17317541  1
  S  S24  1  0.43479438  0.29161691  0.63744074  1
  S  S25  1  0.06520562  0.20838309  0.63744074  1
  S  S26  1  0.93479438  0.70838309  0.86255926  1
  S  S27  1  0.56520562  0.79161691  0.86255926  1
  S  S28  1  0.56520562  0.70838309  0.36255926  1
  S  S29  1  0.93479438  0.79161691  0.36255926  1
  S  S30  1  0.06520562  0.29161691  0.13744074  1
  S  S31  1  0.43479438  0.20838309  0.13744074  1
  S  S32  1  0.75000000  0.25000000  0.69687959  1
  S  S33  1  0.25000000  0.75000000  0.80312041  1
  S  S34  1  0.25000000  0.75000000  0.30312041  1
  S  S35  1  0.75000000  0.25000000  0.19687959  1
  O  O36  1  0.51445946  0.36505454  0.62110025  1
  O  O37  1  0.98554054  0.13494546  0.62110025  1
  O  O38  1  0.01445946  0.63494546  0.87889975  1
  O  O39  1  0.48554054  0.86505454  0.87889975  1
  O  O40  1  0.48554054  0.63494546  0.37889975  1
  O  O41  1  0.01445946  0.86505454  0.37889975  1
  O  O42  1  0.98554054  0.36505454  0.12110025  1
  O  O43  1  0.51445946  0.13494546  0.12110025  1
  O  O44  1  0.38340230  0.49341324  0.60374660  1
  O  O45  1  0.11659770  0.00658676  0.60374660  1
  O  O46  1  0.88340230  0.50658676  0.89625340  1
  O  O47  1  0.61659770  0.99341324  0.89625340  1
  O  O48  1  0.61659770  0.50658676  0.39625340  1
  O  O49  1  0.88340230  0.99341324  0.39625340  1
  O  O50  1  0.11659770  0.49341324  0.10374660  1
  O  O51  1  0.38340230  0.00658676  0.10374660  1
  O  O52  1  0.41798858  0.06050182  0.57864459  1
  O  O53  1  0.08201142  0.43949818  0.57864459  1
  O  O54  1  0.91798858  0.93949818  0.92135541  1
  O  O55  1  0.58201142  0.56050182  0.92135541  1
  O  O56  1  0.58201142  0.93949818  0.42135541  1
  O  O57  1  0.91798858  0.56050182  0.42135541  1
  O  O58  1  0.08201142  0.06050182  0.07864459  1
  O  O59  1  0.41798858  0.43949818  0.07864459  1
  O  O60  1  0.41949490  0.26581913  0.77728939  1
  O  O61  1  0.08050510  0.23418087  0.77728939  1
  O  O62  1  0.91949490  0.73418087  0.72271061  1
  O  O63  1  0.58050510  0.76581913  0.72271061  1
  O  O64  1  0.58050510  0.73418087  0.22271061  1
  O  O65  1  0.91949490  0.76581913  0.22271061  1
  O  O66  1  0.08050510  0.26581913  0.27728939  1
  O  O67  1  0.41949490  0.23418087  0.27728939  1
  O  O68  1  0.68081969  0.27114604  0.63033771  1
  O  O69  1  0.81918031  0.22885396  0.63033771  1
  O  O70  1  0.18081969  0.72885396  0.86966229  1
  O  O71  1  0.31918031  0.77114604  0.86966229  1
  O  O72  1  0.31918031  0.72885396  0.36966229  1
  O  O73  1  0.18081969  0.77114604  0.36966229  1
  O  O74  1  0.81918031  0.27114604  0.13033771  1
  O  O75  1  0.68081969  0.22885396  0.13033771  1
  O  O76  1  0.74771294  0.02382600  0.78265951  1
  O  O77  1  0.75228706  0.47617400  0.78265951  1
  O  O78  1  0.24771294  0.97617400  0.71734049  1
  O  O79  1  0.25228706  0.52382600  0.71734049  1
  O  O80  1  0.25228706  0.97617400  0.21734049  1
  O  O81  1  0.24771294  0.52382600  0.21734049  1
  O  O82  1  0.75228706  0.02382600  0.28265951  1
  O  O83  1  0.74771294  0.47617400  0.28265951  1
