# generated using pymatgen
data_YbB4O7
_symmetry_space_group_name_H-M   'P 1'
_cell_length_a   4.21514430
_cell_length_b   4.37993121
_cell_length_c   10.63426298
_cell_angle_alpha   90.00000000
_cell_angle_beta   90.00000000
_cell_angle_gamma   90.00000000
_symmetry_Int_Tables_number   1
_chemical_formula_structural   YbB4O7
_chemical_formula_sum   'Yb2 B8 O14'
_cell_volume   196.33021057
_cell_formula_units_Z   2
loop_
 _symmetry_equiv_pos_site_id
 _symmetry_equiv_pos_as_xyz
  1  'x, y, z'
loop_
 _atom_site_type_symbol
 _atom_site_label
 _atom_site_symmetry_multiplicity
 _atom_site_fract_x
 _atom_site_fract_y
 _atom_site_fract_z
 _atom_site_occupancy
  Yb  Yb0  1  0.46794124  0.80594449  0.50000000  1
  Yb  Yb1  1  0.96794124  0.19405551  0.00000000  1
  B  B2  1  0.00169229  0.82230876  0.24878813  1
  B  B3  1  0.00169229  0.82230876  0.75121187  1
  B  B4  1  0.47862593  0.67392094  0.12025179  1
  B  B5  1  0.47862593  0.67392094  0.87974821  1
  B  B6  1  0.50169229  0.17769124  0.25121187  1
  B  B7  1  0.50169229  0.17769124  0.74878813  1
  B  B8  1  0.97862593  0.32607906  0.37974821  1
  B  B9  1  0.97862593  0.32607906  0.62025179  1
  O  O10  1  0.05564267  0.64831066  0.36214073  1
  O  O11  1  0.05564267  0.64831066  0.63785927  1
  O  O12  1  0.09370556  0.21755821  0.50000000  1
  O  O13  1  0.13769124  0.72675916  0.13203705  1
  O  O14  1  0.13769124  0.72675916  0.86796295  1
  O  O15  1  0.14281496  0.13701273  0.27537120  1
  O  O16  1  0.14281496  0.13701273  0.72462880  1
  O  O17  1  0.55564267  0.35168934  0.13785927  1
  O  O18  1  0.55564267  0.35168934  0.86214073  1
  O  O19  1  0.59370556  0.78244179  0.00000000  1
  O  O20  1  0.63769124  0.27324084  0.36796295  1
  O  O21  1  0.63769124  0.27324084  0.63203705  1
  O  O22  1  0.64281496  0.86298727  0.22462880  1
  O  O23  1  0.64281496  0.86298727  0.77537120  1
