# generated using pymatgen
data_Li3Bi3(PO4)4
_symmetry_space_group_name_H-M   'P 1'
_cell_length_a   14.84580070
_cell_length_b   5.42159224
_cell_length_c   9.18062153
_cell_angle_alpha   90.00000000
_cell_angle_beta   87.57338762
_cell_angle_gamma   90.00000000
_symmetry_Int_Tables_number   1
_chemical_formula_structural   Li3Bi3(PO4)4
_chemical_formula_sum   'Li6 Bi6 P8 O32'
_cell_volume   738.26612647
_cell_formula_units_Z   2
loop_
 _symmetry_equiv_pos_site_id
 _symmetry_equiv_pos_as_xyz
  1  'x, y, z'
loop_
 _atom_site_type_symbol
 _atom_site_label
 _atom_site_symmetry_multiplicity
 _atom_site_fract_x
 _atom_site_fract_y
 _atom_site_fract_z
 _atom_site_occupancy
  Li  Li0  1  0.00000000  0.50000000  0.50000000  1
  Li  Li1  1  0.28598379  0.42419004  0.33120755  1
  Li  Li2  1  0.21401621  0.92419004  0.16879245  1
  Li  Li3  1  0.78598379  0.07580996  0.83120755  1
  Li  Li4  1  0.50000000  0.00000000  0.00000000  1
  Li  Li5  1  0.71401621  0.57580996  0.66879245  1
  Bi  Bi6  1  0.13313311  0.53885832  0.77032210  1
  Bi  Bi7  1  0.00000000  0.00000000  0.00000000  1
  Bi  Bi8  1  0.36686689  0.03885832  0.72967790  1
  Bi  Bi9  1  0.50000000  0.50000000  0.50000000  1
  Bi  Bi10  1  0.63313311  0.96114168  0.27032210  1
  Bi  Bi11  1  0.86686689  0.46114168  0.22967790  1
  P  P12  1  0.13551360  0.03349074  0.62963797  1
  P  P13  1  0.36448640  0.53349074  0.87036203  1
  P  P14  1  0.10939298  0.46114858  0.16085645  1
  P  P15  1  0.39060702  0.96114858  0.33914355  1
  P  P16  1  0.60939298  0.03885142  0.66085645  1
  P  P17  1  0.89060702  0.53885142  0.83914355  1
  P  P18  1  0.63551360  0.46650926  0.12963797  1
  P  P19  1  0.86448640  0.96650926  0.37036203  1
  O  O20  1  0.09968152  0.96692038  0.79329157  1
  O  O21  1  0.27263487  0.67392385  0.84972367  1
  O  O22  1  0.07444949  0.21142383  0.55616610  1
  O  O23  1  0.14947552  0.77094941  0.56369650  1
  O  O24  1  0.02524597  0.45618908  0.26644998  1
  O  O25  1  0.35052448  0.27094941  0.93630350  1
  O  O26  1  0.42555051  0.71142383  0.94383390  1
  O  O27  1  0.22736513  0.17392385  0.65027633  1
  O  O28  1  0.12841834  0.19436379  0.09932468  1
  O  O29  1  0.40031848  0.46692038  0.70670843  1
  O  O30  1  0.08503335  0.62842281  0.02386268  1
  O  O31  1  0.19248686  0.57347963  0.22599916  1
  O  O32  1  0.52524597  0.04381092  0.76644998  1
  O  O33  1  0.30751314  0.07347963  0.27400084  1
  O  O34  1  0.41496665  0.12842281  0.47613732  1
  O  O35  1  0.37158166  0.69436379  0.40067532  1
  O  O36  1  0.62841834  0.30563621  0.59932468  1
  O  O37  1  0.58503335  0.87157719  0.52386268  1
  O  O38  1  0.69248686  0.92652037  0.72599916  1
  O  O39  1  0.47475403  0.95618908  0.23355002  1
  O  O40  1  0.80751314  0.42652037  0.77400084  1
  O  O41  1  0.91496665  0.37157719  0.97613732  1
  O  O42  1  0.59968152  0.53307962  0.29329157  1
  O  O43  1  0.87158166  0.80563621  0.90067532  1
  O  O44  1  0.77263487  0.82607615  0.34972367  1
  O  O45  1  0.57444949  0.28857617  0.05616610  1
  O  O46  1  0.64947552  0.72905059  0.06369650  1
  O  O47  1  0.97475403  0.54381092  0.73355002  1
  O  O48  1  0.85052448  0.22905059  0.43630350  1
  O  O49  1  0.92555051  0.78857617  0.44383390  1
  O  O50  1  0.72736513  0.32607615  0.15027633  1
  O  O51  1  0.90031848  0.03307962  0.20670843  1
