# generated using pymatgen
data_K2SnO2
_symmetry_space_group_name_H-M   'P 1'
_cell_length_a   10.95148260
_cell_length_b   7.59921914
_cell_length_c   7.30872890
_cell_angle_alpha   118.93518553
_cell_angle_beta   88.30159400
_cell_angle_gamma   117.83462317
_symmetry_Int_Tables_number   1
_chemical_formula_structural   K2SnO2
_chemical_formula_sum   'K8 Sn4 O8'
_cell_volume   455.34316045
_cell_formula_units_Z   4
loop_
 _symmetry_equiv_pos_site_id
 _symmetry_equiv_pos_as_xyz
  1  'x, y, z'
loop_
 _atom_site_type_symbol
 _atom_site_label
 _atom_site_symmetry_multiplicity
 _atom_site_fract_x
 _atom_site_fract_y
 _atom_site_fract_z
 _atom_site_occupancy
  K  K0  1  0.14075116  0.71308590  0.96683216  1
  K  K1  1  0.17263741  0.71923178  0.48368343  1
  K  K2  1  0.18342964  0.25082100  0.99477362  1
  K  K3  1  0.50770933  0.76813491  0.50196892  1
  K  K4  1  0.49229067  0.23186509  0.49803108  1
  K  K5  1  0.81657036  0.74917900  0.00522638  1
  K  K6  1  0.82736259  0.28076822  0.51631657  1
  K  K7  1  0.85924884  0.28691410  0.03316784  1
  Sn  Sn8  1  0.12517275  0.18123770  0.45436295  1
  Sn  Sn9  1  0.47443009  0.76991932  0.99048070  1
  Sn  Sn10  1  0.52556991  0.23008068  0.00951930  1
  Sn  Sn11  1  0.87482725  0.81876230  0.54563705  1
  O  O12  1  0.02045584  0.23504965  0.28218307  1
  O  O13  1  0.00728416  0.19757850  0.69415588  1
  O  O14  1  0.37476300  0.85996378  0.82748796  1
  O  O15  1  0.35219130  0.75085679  0.20323137  1
  O  O16  1  0.64780870  0.24914321  0.79676863  1
  O  O17  1  0.62523700  0.14003622  0.17251204  1
  O  O18  1  0.99271584  0.80242150  0.30584412  1
  O  O19  1  0.97954416  0.76495035  0.71781693  1
