# generated using pymatgen
data_Na2IrO3
_symmetry_space_group_name_H-M   'P 1'
_cell_length_a   5.53675422
_cell_length_b   5.53675422
_cell_length_c   5.63974228
_cell_angle_alpha   99.58249268
_cell_angle_beta   99.58249268
_cell_angle_gamma   119.92577178
_symmetry_Int_Tables_number   1
_chemical_formula_structural   Na2IrO3
_chemical_formula_sum   'Na4 Ir2 O6'
_cell_volume   141.31033784
_cell_formula_units_Z   2
loop_
 _symmetry_equiv_pos_site_id
 _symmetry_equiv_pos_as_xyz
  1  'x, y, z'
loop_
 _atom_site_type_symbol
 _atom_site_label
 _atom_site_symmetry_multiplicity
 _atom_site_fract_x
 _atom_site_fract_y
 _atom_site_fract_z
 _atom_site_occupancy
  Na  Na0  1  -0.00000000  -0.00000000  0.00000000  1
  Na  Na1  1  0.50000000  0.50000000  0.50000000  1
  Na  Na2  1  0.16130442  0.83869558  0.50000000  1
  Na  Na3  1  0.83869558  0.16130442  0.50000000  1
  Ir  Ir4  1  0.33313042  0.66686958  0.00000000  1
  Ir  Ir5  1  0.66686958  0.33313042  0.00000000  1
  O  O6  1  0.56001056  0.93097803  0.79602367  1
  O  O7  1  0.93097803  0.56001056  0.79602367  1
  O  O8  1  0.43998944  0.06902197  0.20397633  1
  O  O9  1  0.06902197  0.43998944  0.20397633  1
  O  O10  1  0.70051064  0.70051064  0.20624102  1
  O  O11  1  0.29948936  0.29948936  0.79375898  1
