# generated using pymatgen
data_Li2RhO3
_symmetry_space_group_name_H-M   'P 1'
_cell_length_a   5.96677517
_cell_length_b   5.15350279
_cell_length_c   9.89268682
_cell_angle_alpha   84.92949539
_cell_angle_beta   154.87495691
_cell_angle_gamma   106.77962019
_symmetry_Int_Tables_number   1
_chemical_formula_structural   Li2RhO3
_chemical_formula_sum   'Li4 Rh2 O6'
_cell_volume   111.90553533
_cell_formula_units_Z   2
loop_
 _symmetry_equiv_pos_site_id
 _symmetry_equiv_pos_as_xyz
  1  'x, y, z'
loop_
 _atom_site_type_symbol
 _atom_site_label
 _atom_site_symmetry_multiplicity
 _atom_site_fract_x
 _atom_site_fract_y
 _atom_site_fract_z
 _atom_site_occupancy
  Li  Li0  1  0.49951559  0.50017269  0.99972147  1
  Li  Li1  1  0.17503330  0.17598789  0.33749916  1
  Li  Li2  1  0.82377501  0.82519335  0.66185781  1
  Li  Li3  1  0.99973374  0.50001765  0.99983398  1
  Rh  Rh4  1  0.33303554  0.83386593  0.66650386  1
  Rh  Rh5  1  0.66535691  0.16620769  0.33264861  1
  O  O6  1  0.38446784  0.15205726  0.80940837  1
  O  O7  1  0.61491293  0.84809227  0.19022376  1
  O  O8  1  0.22506451  0.50026394  0.49474508  1
  O  O9  1  0.07976813  0.84794848  0.15701968  1
  O  O10  1  0.91806261  0.15187434  0.84181551  1
  O  O11  1  0.77342788  0.50023052  0.50446471  1
