# generated using pymatgen
data_Dy3Y5O12
_symmetry_space_group_name_H-M   'P 1'
_cell_length_a   9.26143430
_cell_length_b   9.26368517
_cell_length_c   9.26255073
_cell_angle_alpha   109.46741891
_cell_angle_beta   109.47537956
_cell_angle_gamma   109.47120459
_symmetry_Int_Tables_number   1
_chemical_formula_structural   Dy3Y5O12
_chemical_formula_sum   'Dy6 Y10 O24'
_cell_volume   611.74286957
_cell_formula_units_Z   2
loop_
 _symmetry_equiv_pos_site_id
 _symmetry_equiv_pos_as_xyz
  1  'x, y, z'
loop_
 _atom_site_type_symbol
 _atom_site_label
 _atom_site_symmetry_multiplicity
 _atom_site_fract_x
 _atom_site_fract_y
 _atom_site_fract_z
 _atom_site_occupancy
  Dy  Dy0  1  0.75010434  0.28294260  0.53289709  1
  Dy  Dy1  1  0.24994070  0.71730806  0.46737124  1
  Dy  Dy2  1  0.24995593  0.21706581  0.96717269  1
  Dy  Dy3  1  0.21736786  0.96724671  0.24996217  1
  Dy  Dy4  1  0.28256408  0.53269573  0.74991787  1
  Dy  Dy5  1  0.03290984  0.75001499  0.78279135  1
  Y  Y6  1  0.96752693  0.25009147  0.21751083  1
  Y  Y7  1  0.49976997  0.99997815  0.99999165  1
  Y  Y8  1  0.78274580  0.03268955  0.74992197  1
  Y  Y9  1  0.71737029  0.46731047  0.25018859  1
  Y  Y10  1  0.75006977  0.78262084  0.03255295  1
  Y  Y11  1  0.00018339  0.50001854  0.99987731  1
  Y  Y12  1  0.49998846  0.49986751  0.49992279  1
  Y  Y13  1  0.46716807  0.24987948  0.71717535  1
  Y  Y14  1  0.53247107  0.74998727  0.28256026  1
  Y  Y15  1  0.00014403  0.00005037  0.50020915  1
  O  O16  1  0.76073136  0.03181640  0.48891013  1
  O  O17  1  0.73926009  0.22818195  0.27110230  1
  O  O18  1  0.27131744  0.01113966  0.04227721  1
  O  O19  1  0.96921884  0.51139128  0.23972160  1
  O  O20  1  0.46883268  0.22903197  0.45729596  1
  O  O21  1  0.77180692  0.72930160  0.26080224  1
  O  O22  1  0.04292368  0.27182880  0.01104608  1
  O  O23  1  0.45709020  0.46815070  0.22892669  1
  O  O24  1  0.48837567  0.76014697  0.03071327  1
  O  O25  1  0.72937679  0.26086522  0.77157532  1
  O  O26  1  0.01165577  0.04232669  0.27175447  1
  O  O27  1  0.77106778  0.54258339  0.53189424  1
  O  O28  1  0.22943231  0.45810244  0.46933861  1
  O  O29  1  0.98927615  0.95740533  0.72850334  1
  O  O30  1  0.27055358  0.73985624  0.22865313  1
  O  O31  1  0.51074226  0.23918423  0.96853792  1
  O  O32  1  0.54211788  0.53138573  0.77063419  1
  O  O33  1  0.95817054  0.72863386  0.98880333  1
  O  O34  1  0.53076150  0.77053250  0.54218352  1
  O  O35  1  0.22826215  0.27095565  0.73981731  1
  O  O36  1  0.03115875  0.48886830  0.76018343  1
  O  O37  1  0.72817586  0.98903072  0.95750652  1
  O  O38  1  0.23930045  0.96821720  0.51072347  1
  O  O39  1  0.26010881  0.77129566  0.72907244  1
