# generated using pymatgen
data_CaHfO3
_symmetry_space_group_name_H-M   'P 1'
_cell_length_a   5.58080359
_cell_length_b   5.76822869
_cell_length_c   8.01690839
_cell_angle_alpha   90.00000000
_cell_angle_beta   90.00000000
_cell_angle_gamma   90.00000000
_symmetry_Int_Tables_number   1
_chemical_formula_structural   CaHfO3
_chemical_formula_sum   'Ca4 Hf4 O12'
_cell_volume   258.07511497
_cell_formula_units_Z   4
loop_
 _symmetry_equiv_pos_site_id
 _symmetry_equiv_pos_as_xyz
  1  'x, y, z'
loop_
 _atom_site_type_symbol
 _atom_site_label
 _atom_site_symmetry_multiplicity
 _atom_site_fract_x
 _atom_site_fract_y
 _atom_site_fract_z
 _atom_site_occupancy
  Ca  Ca0  1  0.01309755  0.94890679  0.75000000  1
  Ca  Ca1  1  0.48690245  0.44890679  0.75000000  1
  Ca  Ca2  1  0.51309755  0.55109321  0.25000000  1
  Ca  Ca3  1  0.98690245  0.05109321  0.25000000  1
  Hf  Hf4  1  0.00000000  0.50000000  0.00000000  1
  Hf  Hf5  1  0.00000000  0.50000000  0.50000000  1
  Hf  Hf6  1  0.50000000  0.00000000  0.00000000  1
  Hf  Hf7  1  0.50000000  0.00000000  0.50000000  1
  O  O8  1  0.10219247  0.46266045  0.25000000  1
  O  O9  1  0.19851523  0.20107363  0.55397268  1
  O  O10  1  0.19851523  0.20107363  0.94602732  1
  O  O11  1  0.30148477  0.70107363  0.55397268  1
  O  O12  1  0.30148477  0.70107363  0.94602732  1
  O  O13  1  0.39780753  0.96266045  0.25000000  1
  O  O14  1  0.60219247  0.03733955  0.75000000  1
  O  O15  1  0.69851523  0.29892637  0.05397268  1
  O  O16  1  0.69851523  0.29892637  0.44602732  1
  O  O17  1  0.80148477  0.79892637  0.05397268  1
  O  O18  1  0.80148477  0.79892637  0.44602732  1
  O  O19  1  0.89780753  0.53733955  0.75000000  1
