# generated using pymatgen
data_Sc6N2O5
_symmetry_space_group_name_H-M   'P 1'
_cell_length_a   7.02730304
_cell_length_b   4.42237801
_cell_length_c   5.47239963
_cell_angle_alpha   66.16763632
_cell_angle_beta   97.76575051
_cell_angle_gamma   90.00000000
_symmetry_Int_Tables_number   1
_chemical_formula_structural   Sc6N2O5
_chemical_formula_sum   'Sc6 N2 O5'
_cell_volume   153.85981441
_cell_formula_units_Z   1
loop_
 _symmetry_equiv_pos_site_id
 _symmetry_equiv_pos_as_xyz
  1  'x, y, z'
loop_
 _atom_site_type_symbol
 _atom_site_label
 _atom_site_symmetry_multiplicity
 _atom_site_fract_x
 _atom_site_fract_y
 _atom_site_fract_z
 _atom_site_occupancy
  Sc  Sc0  1  0.28389115  0.56472184  0.87055632  1
  Sc  Sc1  1  0.13851482  0.29185051  0.41629797  1
  Sc  Sc2  1  0.57713662  0.14586139  0.70827622  1
  Sc  Sc3  1  0.42286338  0.85413861  0.29172378  1
  Sc  Sc4  1  0.86148518  0.70814949  0.58370203  1
  Sc  Sc5  1  0.71610885  0.43527816  0.12944368  1
  N  N6  1  0.42548285  0.35760335  0.28479430  1
  N  N7  1  0.57451715  0.64239665  0.71520570  1
  O  O8  1  0.29645383  0.07768783  0.84462535  1
  O  O9  1  0.00000000  0.50000000  0.00000000  1
  O  O10  1  0.14543452  0.77301876  0.45396248  1
  O  O11  1  0.85456548  0.22698124  0.54603752  1
  O  O12  1  0.70354617  0.92231217  0.15537465  1
