# generated using pymatgen
data_Lu6TeO12
_symmetry_space_group_name_H-M   'P 1'
_cell_length_a   6.36562973
_cell_length_b   6.36562955
_cell_length_c   6.36562929
_cell_angle_alpha   98.92041635
_cell_angle_beta   98.92041234
_cell_angle_gamma   98.92040929
_symmetry_Int_Tables_number   1
_chemical_formula_structural   Lu6TeO12
_chemical_formula_sum   'Lu6 Te1 O12'
_cell_volume   247.46558061
_cell_formula_units_Z   1
loop_
 _symmetry_equiv_pos_site_id
 _symmetry_equiv_pos_as_xyz
  1  'x, y, z'
loop_
 _atom_site_type_symbol
 _atom_site_label
 _atom_site_symmetry_multiplicity
 _atom_site_fract_x
 _atom_site_fract_y
 _atom_site_fract_z
 _atom_site_occupancy
  Lu  Lu0  1  0.14472898  0.32144070  0.60788331  1
  Lu  Lu1  1  0.39211669  0.85527102  0.67855930  1
  Lu  Lu2  1  0.32144070  0.60788331  0.14472898  1
  Lu  Lu3  1  0.67855930  0.39211669  0.85527102  1
  Lu  Lu4  1  0.60788331  0.14472898  0.32144070  1
  Lu  Lu5  1  0.85527102  0.67855930  0.39211669  1
  Te  Te6  1  0.00000000  0.00000000  0.00000000  1
  O  O7  1  0.04060332  0.91613188  0.70025123  1
  O  O8  1  0.08386812  0.29974877  0.95939668  1
  O  O9  1  0.17782178  0.59011429  0.42659864  1
  O  O10  1  0.29974877  0.95939668  0.08386812  1
  O  O11  1  0.40988571  0.57340136  0.82217822  1
  O  O12  1  0.42659864  0.17782178  0.59011429  1
  O  O13  1  0.57340136  0.82217822  0.40988571  1
  O  O14  1  0.59011429  0.42659864  0.17782178  1
  O  O15  1  0.70025123  0.04060332  0.91613188  1
  O  O16  1  0.82217822  0.40988571  0.57340136  1
  O  O17  1  0.91613188  0.70025123  0.04060332  1
  O  O18  1  0.95939668  0.08386812  0.29974877  1
