# generated using pymatgen
data_Ba3(BO3)2
_symmetry_space_group_name_H-M   'P 1'
_cell_length_a   7.22694430
_cell_length_b   7.22694430
_cell_length_c   7.22694433
_cell_angle_alpha   83.21705173
_cell_angle_beta   83.21705173
_cell_angle_gamma   83.21705118
_symmetry_Int_Tables_number   1
_chemical_formula_structural   Ba3(BO3)2
_chemical_formula_sum   'Ba6 B4 O12'
_cell_volume   370.10644106
_cell_formula_units_Z   2
loop_
 _symmetry_equiv_pos_site_id
 _symmetry_equiv_pos_as_xyz
  1  'x, y, z'
loop_
 _atom_site_type_symbol
 _atom_site_label
 _atom_site_symmetry_multiplicity
 _atom_site_fract_x
 _atom_site_fract_y
 _atom_site_fract_z
 _atom_site_occupancy
  Ba  Ba0  1  0.09848719  0.75000000  0.40151281  1
  Ba  Ba1  1  0.25000000  0.59848719  0.90151281  1
  Ba  Ba2  1  0.59848719  0.90151281  0.25000000  1
  Ba  Ba3  1  0.40151281  0.09848719  0.75000000  1
  Ba  Ba4  1  0.75000000  0.40151281  0.09848719  1
  Ba  Ba5  1  0.90151281  0.25000000  0.59848719  1
  B  B6  1  0.88459589  0.88459589  0.88459589  1
  B  B7  1  0.61540411  0.61540411  0.61540411  1
  B  B8  1  0.11540411  0.11540411  0.11540411  1
  B  B9  1  0.38459589  0.38459589  0.38459589  1
  O  O10  1  0.02790932  0.89143561  0.73587966  1
  O  O11  1  0.26412034  0.97209068  0.10856439  1
  O  O12  1  0.47209068  0.76412034  0.60856439  1
  O  O13  1  0.23587966  0.39143561  0.52790932  1
  O  O14  1  0.10856439  0.26412034  0.97209068  1
  O  O15  1  0.39143561  0.52790932  0.23587966  1
  O  O16  1  0.60856439  0.47209068  0.76412034  1
  O  O17  1  0.76412034  0.60856439  0.47209068  1
  O  O18  1  0.89143561  0.73587966  0.02790932  1
  O  O19  1  0.52790932  0.23587966  0.39143561  1
  O  O20  1  0.73587966  0.02790932  0.89143561  1
  O  O21  1  0.97209068  0.10856439  0.26412034  1
