# generated using pymatgen
data_Na3CuO2
_symmetry_space_group_name_H-M   'P 1'
_cell_length_a   9.51104634
_cell_length_b   9.51104634
_cell_length_c   4.59468875
_cell_angle_alpha   90.00000000
_cell_angle_beta   90.00000000
_cell_angle_gamma   90.00000000
_symmetry_Int_Tables_number   1
_chemical_formula_structural   Na3CuO2
_chemical_formula_sum   'Na12 Cu4 O8'
_cell_volume   415.63555573
_cell_formula_units_Z   4
loop_
 _symmetry_equiv_pos_site_id
 _symmetry_equiv_pos_as_xyz
  1  'x, y, z'
loop_
 _atom_site_type_symbol
 _atom_site_label
 _atom_site_symmetry_multiplicity
 _atom_site_fract_x
 _atom_site_fract_y
 _atom_site_fract_z
 _atom_site_occupancy
  Na  Na0  1  0.98620214  0.65602614  0.50000000  1
  Na  Na1  1  0.15602614  0.51379786  0.00000000  1
  Na  Na2  1  0.15822403  0.84177597  0.00000000  1
  Na  Na3  1  0.34177597  0.34177597  0.50000000  1
  Na  Na4  1  0.34397386  0.01379786  0.50000000  1
  Na  Na5  1  0.51379786  0.15602614  0.00000000  1
  Na  Na6  1  0.48620214  0.84397386  0.00000000  1
  Na  Na7  1  0.65602614  0.98620214  0.50000000  1
  Na  Na8  1  0.65822403  0.65822403  0.50000000  1
  Na  Na9  1  0.84177597  0.15822403  0.00000000  1
  Na  Na10  1  0.84397386  0.48620214  0.00000000  1
  Na  Na11  1  0.01379786  0.34397386  0.50000000  1
  Cu  Cu12  1  0.16658760  0.16658760  0.00000000  1
  Cu  Cu13  1  0.33341240  0.66658760  0.50000000  1
  Cu  Cu14  1  0.66658760  0.33341240  0.50000000  1
  Cu  Cu15  1  0.83341240  0.83341240  0.00000000  1
  O  O16  1  0.03008323  0.30047359  0.00000000  1
  O  O17  1  0.19952641  0.53008323  0.50000000  1
  O  O18  1  0.30047359  0.03008323  0.00000000  1
  O  O19  1  0.46991677  0.80047459  0.50000000  1
  O  O20  1  0.53008323  0.19952641  0.50000000  1
  O  O21  1  0.69952541  0.96991677  0.00000000  1
  O  O22  1  0.80047459  0.46991677  0.50000000  1
  O  O23  1  0.96991677  0.69952541  0.00000000  1
