# generated using pymatgen
data_LuSiRu
_symmetry_space_group_name_H-M   'P 1'
_cell_length_a   6.85939057
_cell_length_b   4.26345686
_cell_length_c   7.10817423
_cell_angle_alpha   90.00000000
_cell_angle_beta   90.00000000
_cell_angle_gamma   90.00000000
_symmetry_Int_Tables_number   1
_chemical_formula_structural   LuSiRu
_chemical_formula_sum   'Lu4 Si4 Ru4'
_cell_volume   207.87653508
_cell_formula_units_Z   4
loop_
 _symmetry_equiv_pos_site_id
 _symmetry_equiv_pos_as_xyz
  1  'x, y, z'
loop_
 _atom_site_type_symbol
 _atom_site_label
 _atom_site_symmetry_multiplicity
 _atom_site_fract_x
 _atom_site_fract_y
 _atom_site_fract_z
 _atom_site_occupancy
  Lu  Lu0  1  0.00952892  0.75000000  0.81125426  1
  Lu  Lu1  1  0.49047108  0.25000000  0.31125426  1
  Lu  Lu2  1  0.50952892  0.75000000  0.68874574  1
  Lu  Lu3  1  0.99047108  0.25000000  0.18874574  1
  Si  Si4  1  0.20049771  0.75000000  0.39367922  1
  Si  Si5  1  0.29950229  0.25000000  0.89367922  1
  Si  Si6  1  0.70049771  0.75000000  0.10632078  1
  Si  Si7  1  0.79950229  0.25000000  0.60632078  1
  Ru  Ru8  1  0.15558737  0.25000000  0.56535681  1
  Ru  Ru9  1  0.34441263  0.75000000  0.06535681  1
  Ru  Ru10  1  0.65558737  0.25000000  0.93464319  1
  Ru  Ru11  1  0.84441263  0.75000000  0.43464319  1
