# generated using pymatgen
data_BiOF
_symmetry_space_group_name_H-M   'P 1'
_cell_length_a   7.66316929
_cell_length_b   10.98215619
_cell_length_c   7.91746525
_cell_angle_alpha   90.00000000
_cell_angle_beta   98.50742027
_cell_angle_gamma   90.00000000
_symmetry_Int_Tables_number   1
_chemical_formula_structural   BiOF
_chemical_formula_sum   'Bi12 O12 F12'
_cell_volume   658.98730773
_cell_formula_units_Z   12
loop_
 _symmetry_equiv_pos_site_id
 _symmetry_equiv_pos_as_xyz
  1  'x, y, z'
loop_
 _atom_site_type_symbol
 _atom_site_label
 _atom_site_symmetry_multiplicity
 _atom_site_fract_x
 _atom_site_fract_y
 _atom_site_fract_z
 _atom_site_occupancy
  Bi  Bi0  1  0.07752269  0.50862693  0.72705930  1
  Bi  Bi1  1  0.07524295  0.21231373  0.01728426  1
  Bi  Bi2  1  0.12753337  0.19336502  0.46928643  1
  Bi  Bi3  1  0.37246663  0.69336502  0.53071357  1
  Bi  Bi4  1  0.42475705  0.71231373  0.98271574  1
  Bi  Bi5  1  0.42247731  0.00862693  0.27294070  1
  Bi  Bi6  1  0.57752269  0.99137307  0.72705930  1
  Bi  Bi7  1  0.57524295  0.28768627  0.01728426  1
  Bi  Bi8  1  0.62753337  0.30663498  0.46928643  1
  Bi  Bi9  1  0.87246663  0.80663498  0.53071357  1
  Bi  Bi10  1  0.92475705  0.78768627  0.98271574  1
  Bi  Bi11  1  0.92247731  0.49137307  0.27294070  1
  O  O12  1  0.10207067  0.60511708  0.48812250  1
  O  O13  1  0.06675533  0.31621266  0.24871387  1
  O  O14  1  0.35237226  0.58916532  0.76892176  1
  O  O15  1  0.14762774  0.08916532  0.23107824  1
  O  O16  1  0.43324467  0.81621266  0.75128613  1
  O  O17  1  0.39792933  0.10511708  0.51187750  1
  O  O18  1  0.60207067  0.89488292  0.48812250  1
  O  O19  1  0.56675533  0.18378734  0.24871387  1
  O  O20  1  0.85237226  0.91083468  0.76892176  1
  O  O21  1  0.64762774  0.41083468  0.23107824  1
  O  O22  1  0.93324467  0.68378734  0.75128613  1
  O  O23  1  0.89792933  0.39488292  0.51187750  1
  F  F24  1  0.20475901  0.86381808  0.99662363  1
  F  F25  1  0.20844770  0.85221434  0.43012620  1
  F  F26  1  0.12938275  0.62291703  0.05655582  1
  F  F27  1  0.37061725  0.12291703  0.94344418  1
  F  F28  1  0.29155230  0.35221434  0.56987380  1
  F  F29  1  0.29524099  0.36381808  0.00337637  1
  F  F30  1  0.70475901  0.63618192  0.99662363  1
  F  F31  1  0.70844770  0.64778566  0.43012620  1
  F  F32  1  0.62938275  0.87708297  0.05655582  1
  F  F33  1  0.87061725  0.37708297  0.94344418  1
  F  F34  1  0.79155230  0.14778566  0.56987380  1
  F  F35  1  0.79524099  0.13618192  0.00337637  1
