# generated using pymatgen
data_Lu2TeO6
_symmetry_space_group_name_H-M   'P 1'
_cell_length_a   9.09538060
_cell_length_b   9.09547936
_cell_length_c   5.06102612
_cell_angle_alpha   90.00111811
_cell_angle_beta   90.00000000
_cell_angle_gamma   119.99964444
_symmetry_Int_Tables_number   1
_chemical_formula_structural   Lu2TeO6
_chemical_formula_sum   'Lu6 Te3 O18'
_cell_volume   362.59118041
_cell_formula_units_Z   3
loop_
 _symmetry_equiv_pos_site_id
 _symmetry_equiv_pos_as_xyz
  1  'x, y, z'
loop_
 _atom_site_type_symbol
 _atom_site_label
 _atom_site_symmetry_multiplicity
 _atom_site_fract_x
 _atom_site_fract_y
 _atom_site_fract_z
 _atom_site_occupancy
  Lu  Lu0  1  0.99998944  0.62731477  0.00000619  1
  Lu  Lu1  1  0.99999147  0.29009089  0.50000883  1
  Lu  Lu2  1  0.37267467  0.37268523  0.99999381  1
  Lu  Lu3  1  0.29007866  0.00000000  0.50000000  1
  Lu  Lu4  1  0.70990058  0.70990911  0.49999117  1
  Lu  Lu5  1  0.62732586  0.00000000  0.00000000  1
  Te  Te6  1  0.33332710  0.66668078  0.50833312  1
  Te  Te7  1  0.00000961  0.00000000  0.00000000  1
  Te  Te8  1  0.66664731  0.33331922  0.49166688  1
  O  O9  1  0.08522508  0.88122333  0.78578712  1
  O  O10  1  0.22005724  0.75926324  0.29128542  1
  O  O11  1  0.12954802  0.54246104  0.72600664  1
  O  O12  1  0.41290038  0.87045271  0.72602403  1
  O  O13  1  0.24070959  0.46079746  0.29126089  1
  O  O14  1  0.11876547  0.20398873  0.78577258  1
  O  O15  1  0.20400175  0.11877667  0.21421288  1
  O  O16  1  0.53919953  0.77992734  0.29127048  1
  O  O17  1  0.45754767  0.58710035  0.72601696  1
  O  O18  1  0.79602198  0.91477939  0.78577521  1
  O  O19  1  0.46079400  0.24073676  0.70871458  1
  O  O20  1  0.58708698  0.45753896  0.27399336  1
  O  O21  1  0.54244667  0.12954729  0.27397597  1
  O  O22  1  0.77991213  0.53920254  0.70873911  1
  O  O23  1  0.91477673  0.79601127  0.21422742  1
  O  O24  1  0.75927119  0.22007266  0.70872952  1
  O  O25  1  0.87044732  0.41289965  0.27398304  1
  O  O26  1  0.88124158  0.08522061  0.21422479  1
