# generated using pymatgen
data_Rb2MgO2
_symmetry_space_group_name_H-M   'P 1'
_cell_length_a   10.93176622
_cell_length_b   6.52831284
_cell_length_c   5.63648052
_cell_angle_alpha   90.00000000
_cell_angle_beta   90.00000000
_cell_angle_gamma   90.00000000
_symmetry_Int_Tables_number   1
_chemical_formula_structural   Rb2MgO2
_chemical_formula_sum   'Rb8 Mg4 O8'
_cell_volume   402.25301117
_cell_formula_units_Z   4
loop_
 _symmetry_equiv_pos_site_id
 _symmetry_equiv_pos_as_xyz
  1  'x, y, z'
loop_
 _atom_site_type_symbol
 _atom_site_label
 _atom_site_symmetry_multiplicity
 _atom_site_fract_x
 _atom_site_fract_y
 _atom_site_fract_z
 _atom_site_occupancy
  Rb  Rb0  1  0.15556742  0.36226453  0.56171444  1
  Rb  Rb1  1  0.15556742  0.63773547  0.06171444  1
  Rb  Rb2  1  0.34443258  0.13773547  0.06171444  1
  Rb  Rb3  1  0.34443258  0.86226453  0.56171444  1
  Rb  Rb4  1  0.65556742  0.13773547  0.43828556  1
  Rb  Rb5  1  0.65556742  0.86226453  0.93828556  1
  Rb  Rb6  1  0.84443258  0.36226453  0.93828556  1
  Rb  Rb7  1  0.84443258  0.63773547  0.43828556  1
  Mg  Mg8  1  0.00000000  0.01275724  0.25000000  1
  Mg  Mg9  1  0.00000000  0.98724276  0.75000000  1
  Mg  Mg10  1  0.50000000  0.48724276  0.75000000  1
  Mg  Mg11  1  0.50000000  0.51275724  0.25000000  1
  O  O12  1  0.09066996  0.16554616  0.99425543  1
  O  O13  1  0.09066996  0.83445384  0.49425543  1
  O  O14  1  0.40933004  0.33445384  0.49425543  1
  O  O15  1  0.40933004  0.66554616  0.99425543  1
  O  O16  1  0.59066996  0.33445384  0.00574457  1
  O  O17  1  0.59066996  0.66554616  0.50574457  1
  O  O18  1  0.90933004  0.16554616  0.50574457  1
  O  O19  1  0.90933004  0.83445384  0.00574457  1
