# generated using pymatgen
data_Al2(SeO4)3
_symmetry_space_group_name_H-M   'P 1'
_cell_length_a   8.48268538
_cell_length_b   8.48303713
_cell_length_c   8.97258034
_cell_angle_alpha   61.78693734
_cell_angle_beta   118.20968968
_cell_angle_gamma   120.00075189
_symmetry_Int_Tables_number   1
_chemical_formula_structural   Al2(SeO4)3
_chemical_formula_sum   'Al4 Se6 O24'
_cell_volume   468.50173626
_cell_formula_units_Z   2
loop_
 _symmetry_equiv_pos_site_id
 _symmetry_equiv_pos_as_xyz
  1  'x, y, z'
loop_
 _atom_site_type_symbol
 _atom_site_label
 _atom_site_symmetry_multiplicity
 _atom_site_fract_x
 _atom_site_fract_y
 _atom_site_fract_z
 _atom_site_occupancy
  Al  Al0  1  0.64812350  0.35189233  0.94437742  1
  Al  Al1  1  0.85646603  0.14356374  0.56938699  1
  Al  Al2  1  0.14353397  0.85643626  0.43061301  1
  Al  Al3  1  0.35187650  0.64810667  0.05562258  1
  Se  Se4  1  0.96422903  0.45999768  0.75300672  1
  Se  Se5  1  0.54006334  0.75128808  0.75304978  1
  Se  Se6  1  0.24875186  0.03563947  0.75302635  1
  Se  Se7  1  0.75124814  0.96436053  0.24697365  1
  Se  Se8  1  0.45993666  0.24871192  0.24695022  1
  Se  Se9  1  0.03577097  0.54000232  0.24699328  1
  O  O10  1  0.80472198  0.48278936  0.79218408  1
  O  O11  1  0.88181302  0.24611538  0.73282988  1
  O  O12  1  0.98991297  0.63073523  0.56250165  1
  O  O13  1  0.52145674  0.77858283  0.91658425  1
  O  O14  1  0.75384141  0.90286169  0.73284551  1
  O  O15  1  0.51723490  0.52976512  0.79219025  1
  O  O16  1  0.47028224  0.19528717  0.79217294  1
  O  O17  1  0.22143926  0.82628927  0.91656592  1
  O  O18  1  0.79664550  0.98997760  0.43749378  1
  O  O19  1  0.17372044  0.47853629  0.91654297  1
  O  O20  1  0.90284587  0.88185286  0.26721310  1
  O  O21  1  0.63076828  0.20333811  0.43751439  1
  O  O22  1  0.36923172  0.79666189  0.56248561  1
  O  O23  1  0.09715413  0.11814814  0.73278690  1
  O  O24  1  0.82627956  0.52146371  0.08345803  1
  O  O25  1  0.20335550  0.01002240  0.56250622  1
  O  O26  1  0.77856074  0.17371073  0.08343408  1
  O  O27  1  0.52971776  0.80471283  0.20782706  1
  O  O28  1  0.48276510  0.47023488  0.20780975  1
  O  O29  1  0.24615859  0.09713831  0.26715449  1
  O  O30  1  0.47854326  0.22141617  0.08341575  1
  O  O31  1  0.01008703  0.36926477  0.43749835  1
  O  O32  1  0.11818698  0.75388462  0.26717012  1
  O  O33  1  0.19527802  0.51721064  0.20781592  1
