# generated using pymatgen
data_Mg2TiO4
_symmetry_space_group_name_H-M   'P 1'
_cell_length_a   6.05169010
_cell_length_b   6.05169010
_cell_length_c   8.48760046
_cell_angle_alpha   90.00000000
_cell_angle_beta   90.00000000
_cell_angle_gamma   90.00000000
_symmetry_Int_Tables_number   1
_chemical_formula_structural   Mg2TiO4
_chemical_formula_sum   'Mg8 Ti4 O16'
_cell_volume   310.84099329
_cell_formula_units_Z   4
loop_
 _symmetry_equiv_pos_site_id
 _symmetry_equiv_pos_as_xyz
  1  'x, y, z'
loop_
 _atom_site_type_symbol
 _atom_site_label
 _atom_site_symmetry_multiplicity
 _atom_site_fract_x
 _atom_site_fract_y
 _atom_site_fract_z
 _atom_site_occupancy
  Mg  Mg0  1  0.00000000  0.24874915  0.00000000  1
  Mg  Mg1  1  0.00000000  0.75125085  0.50000000  1
  Mg  Mg2  1  0.24874915  0.00000000  0.75000000  1
  Mg  Mg3  1  0.25257896  0.25257896  0.37500000  1
  Mg  Mg4  1  0.25257896  0.74742104  0.12500000  1
  Mg  Mg5  1  0.74742104  0.25257896  0.62500000  1
  Mg  Mg6  1  0.74742104  0.74742104  0.87500000  1
  Mg  Mg7  1  0.75125085  0.00000000  0.25000000  1
  Ti  Ti8  1  0.23600100  0.50000000  0.75000000  1
  Ti  Ti9  1  0.50000000  0.23600100  0.00000000  1
  Ti  Ti10  1  0.50000000  0.76399900  0.50000000  1
  Ti  Ti11  1  0.76399900  0.50000000  0.25000000  1
  O  O12  1  0.02651584  0.26325459  0.75210098  1
  O  O13  1  0.02651584  0.73674541  0.74789902  1
  O  O14  1  0.26087746  0.48301544  0.98286622  1
  O  O15  1  0.26087746  0.51698456  0.51713378  1
  O  O16  1  0.26325459  0.02651584  0.99789902  1
  O  O17  1  0.26325459  0.97348416  0.50210098  1
  O  O18  1  0.48301544  0.26087746  0.76713378  1
  O  O19  1  0.48301544  0.73912254  0.73286622  1
  O  O20  1  0.51698456  0.26087746  0.23286622  1
  O  O21  1  0.51698456  0.73912254  0.26713378  1
  O  O22  1  0.73674541  0.97348416  0.49789902  1
  O  O23  1  0.73674541  0.02651584  0.00210098  1
  O  O24  1  0.73912254  0.48301544  0.01713378  1
  O  O25  1  0.73912254  0.51698456  0.48286622  1
  O  O26  1  0.97348416  0.26325459  0.24789902  1
  O  O27  1  0.97348416  0.73674541  0.25210098  1
