# generated using pymatgen
data_Li2TiTeO6
_symmetry_space_group_name_H-M   'P 1'
_cell_length_a   5.13887666
_cell_length_b   4.99111855
_cell_length_c   8.49621248
_cell_angle_alpha   90.00000000
_cell_angle_beta   90.00000000
_cell_angle_gamma   90.00000000
_symmetry_Int_Tables_number   1
_chemical_formula_structural   Li2TiTeO6
_chemical_formula_sum   'Li4 Ti2 Te2 O12'
_cell_volume   217.91716718
_cell_formula_units_Z   2
loop_
 _symmetry_equiv_pos_site_id
 _symmetry_equiv_pos_as_xyz
  1  'x, y, z'
loop_
 _atom_site_type_symbol
 _atom_site_label
 _atom_site_symmetry_multiplicity
 _atom_site_fract_x
 _atom_site_fract_y
 _atom_site_fract_z
 _atom_site_occupancy
  Li  Li0  1  0.00000000  0.00000000  0.69758178  1
  Li  Li1  1  0.00000000  0.50000000  0.82165515  1
  Li  Li2  1  0.50000000  0.00000000  0.32165515  1
  Li  Li3  1  0.50000000  0.50000000  0.19758178  1
  Ti  Ti4  1  0.00000000  0.00000000  0.10871830  1
  Ti  Ti5  1  0.50000000  0.50000000  0.60871830  1
  Te  Te6  1  0.00000000  0.50000000  0.41360941  1
  Te  Te7  1  0.50000000  0.00000000  0.91360941  1
  O  O8  1  0.14656685  0.25708165  0.25616538  1
  O  O9  1  0.17474844  0.29744505  0.58336659  1
  O  O10  1  0.17930226  0.19894386  0.92495471  1
  O  O11  1  0.32069774  0.69894386  0.42495471  1
  O  O12  1  0.32525156  0.79744505  0.08336659  1
  O  O13  1  0.35343315  0.75708165  0.75616538  1
  O  O14  1  0.64656685  0.24291835  0.75616538  1
  O  O15  1  0.67474844  0.20255495  0.08336659  1
  O  O16  1  0.67930226  0.30105614  0.42495471  1
  O  O17  1  0.82069774  0.80105614  0.92495471  1
  O  O18  1  0.82525156  0.70255495  0.58336659  1
  O  O19  1  0.85343315  0.74291835  0.25616538  1
