# generated using pymatgen
data_Ba2Sc2O5
_symmetry_space_group_name_H-M   'P 1'
_cell_length_a   6.00058414
_cell_length_b   11.81679473
_cell_length_c   4.07803591
_cell_angle_alpha   90.00000000
_cell_angle_beta   90.00000000
_cell_angle_gamma   90.00000000
_symmetry_Int_Tables_number   1
_chemical_formula_structural   Ba2Sc2O5
_chemical_formula_sum   'Ba4 Sc4 O10'
_cell_volume   289.16402881
_cell_formula_units_Z   2
loop_
 _symmetry_equiv_pos_site_id
 _symmetry_equiv_pos_as_xyz
  1  'x, y, z'
loop_
 _atom_site_type_symbol
 _atom_site_label
 _atom_site_symmetry_multiplicity
 _atom_site_fract_x
 _atom_site_fract_y
 _atom_site_fract_z
 _atom_site_occupancy
  Ba  Ba0  1  0.22723408  0.87374108  0.50000000  1
  Ba  Ba1  1  0.27276592  0.37374108  0.50000000  1
  Ba  Ba2  1  0.72723408  0.62625892  0.50000000  1
  Ba  Ba3  1  0.77276592  0.12625892  0.50000000  1
  Sc  Sc4  1  0.25784110  0.63328538  0.00000000  1
  Sc  Sc5  1  0.24215890  0.13328538  0.00000000  1
  Sc  Sc6  1  0.75784110  0.86671462  0.00000000  1
  Sc  Sc7  1  0.74215890  0.36671462  0.00000000  1
  O  O8  1  0.00000000  0.00000000  0.00000000  1
  O  O9  1  0.03538351  0.26251634  0.00000000  1
  O  O10  1  0.19460367  0.60159095  0.50000000  1
  O  O11  1  0.30539633  0.10159095  0.50000000  1
  O  O12  1  0.46461649  0.76251634  0.00000000  1
  O  O13  1  0.50000000  0.50000000  0.00000000  1
  O  O14  1  0.53538351  0.23748366  0.00000000  1
  O  O15  1  0.69460367  0.89840905  0.50000000  1
  O  O16  1  0.80539633  0.39840905  0.50000000  1
  O  O17  1  0.96461649  0.73748366  0.00000000  1
