# generated using pymatgen
data_NdBiO4
_symmetry_space_group_name_H-M   'P 1'
_cell_length_a   7.08581879
_cell_length_b   7.08581879
_cell_length_c   6.86255440
_cell_angle_alpha   131.63224250
_cell_angle_beta   134.60909080
_cell_angle_gamma   71.12207726
_symmetry_Int_Tables_number   1
_chemical_formula_structural   NdBiO4
_chemical_formula_sum   'Nd2 Bi2 O8'
_cell_volume   176.59714926
_cell_formula_units_Z   2
loop_
 _symmetry_equiv_pos_site_id
 _symmetry_equiv_pos_as_xyz
  1  'x, y, z'
loop_
 _atom_site_type_symbol
 _atom_site_label
 _atom_site_symmetry_multiplicity
 _atom_site_fract_x
 _atom_site_fract_y
 _atom_site_fract_z
 _atom_site_occupancy
  Nd  Nd0  1  0.38655503  0.13655503  0.25000000  1
  Nd  Nd1  1  0.61344497  0.86344497  0.75000000  1
  Bi  Bi2  1  0.84960852  0.59960852  0.25000000  1
  Bi  Bi3  1  0.15039148  0.40039148  0.75000000  1
  O  O4  1  0.71448924  0.54813225  0.83082752  1
  O  O5  1  0.78269528  0.11633828  0.33082752  1
  O  O6  1  0.46115545  0.23230297  0.74784156  1
  O  O7  1  0.01553859  0.28668611  0.24784156  1
  O  O8  1  0.98446141  0.71331389  0.75215844  1
  O  O9  1  0.53884455  0.76769703  0.25215844  1
  O  O10  1  0.21730472  0.88366172  0.66917248  1
  O  O11  1  0.28551076  0.45186775  0.16917248  1
