# generated using pymatgen
data_Na2TlPCO7
_symmetry_space_group_name_H-M   'P 1'
_cell_length_a   9.19288693
_cell_length_b   6.96491372
_cell_length_c   5.25850597
_cell_angle_alpha   90.00000000
_cell_angle_beta   89.97887912
_cell_angle_gamma   90.00000000
_symmetry_Int_Tables_number   1
_chemical_formula_structural   Na2TlPCO7
_chemical_formula_sum   'Na4 Tl2 P2 C2 O14'
_cell_volume   336.68983225
_cell_formula_units_Z   2
loop_
 _symmetry_equiv_pos_site_id
 _symmetry_equiv_pos_as_xyz
  1  'x, y, z'
loop_
 _atom_site_type_symbol
 _atom_site_label
 _atom_site_symmetry_multiplicity
 _atom_site_fract_x
 _atom_site_fract_y
 _atom_site_fract_z
 _atom_site_occupancy
  Na  Na0  1  0.21685203  0.49843758  0.22731521  1
  Na  Na1  1  0.21685203  0.00156242  0.22731521  1
  Na  Na2  1  0.78314797  0.50156242  0.77268479  1
  Na  Na3  1  0.78314797  0.99843758  0.77268479  1
  Tl  Tl4  1  0.36820983  0.75000000  0.76651047  1
  Tl  Tl5  1  0.63179017  0.25000000  0.23348953  1
  P  P6  1  0.41611206  0.25000000  0.71569314  1
  P  P7  1  0.58388794  0.75000000  0.28430686  1
  C  C8  1  0.07008031  0.75000000  0.72988881  1
  C  C9  1  0.92991969  0.25000000  0.27011119  1
  O  O10  1  0.06683873  0.25000000  0.29672084  1
  O  O11  1  0.13412024  0.75000000  0.95245135  1
  O  O12  1  0.15843429  0.75000000  0.52891329  1
  O  O13  1  0.33620068  0.07154669  0.82209543  1
  O  O14  1  0.33620068  0.42845331  0.82209543  1
  O  O15  1  0.41997600  0.75000000  0.20626731  1
  O  O16  1  0.41169107  0.25000000  0.41413698  1
  O  O17  1  0.58830893  0.75000000  0.58586302  1
  O  O18  1  0.58002400  0.25000000  0.79373269  1
  O  O19  1  0.66379932  0.57154669  0.17790457  1
  O  O20  1  0.66379932  0.92845331  0.17790457  1
  O  O21  1  0.84156571  0.25000000  0.47108671  1
  O  O22  1  0.86587976  0.25000000  0.04754865  1
  O  O23  1  0.93316127  0.75000000  0.70327916  1
