# generated using pymatgen
data_Li3Sb2(PO4)3
_symmetry_space_group_name_H-M   'P 1'
_cell_length_a   5.14272736
_cell_length_b   5.14272736
_cell_length_c   20.09506593
_cell_angle_alpha   89.89607580
_cell_angle_beta   89.89607580
_cell_angle_gamma   67.07674036
_symmetry_Int_Tables_number   1
_chemical_formula_structural   Li3Sb2(PO4)3
_chemical_formula_sum   'Li6 Sb4 P6 O24'
_cell_volume   489.49464030
_cell_formula_units_Z   2
loop_
 _symmetry_equiv_pos_site_id
 _symmetry_equiv_pos_as_xyz
  1  'x, y, z'
loop_
 _atom_site_type_symbol
 _atom_site_label
 _atom_site_symmetry_multiplicity
 _atom_site_fract_x
 _atom_site_fract_y
 _atom_site_fract_z
 _atom_site_occupancy
  Li  Li0  1  0.00069254  0.00069254  0.82922492  1
  Li  Li1  1  0.33940212  0.33940212  0.57380659  1
  Li  Li2  1  0.33706992  0.33706992  0.90636227  1
  Li  Li3  1  0.66293008  0.66293008  0.42697173  1
  Li  Li4  1  0.99930746  0.99930746  0.50410908  1
  Li  Li5  1  0.66059788  0.66059788  0.75952741  1
  Sb  Sb6  1  0.00000000  0.00000000  0.16666700  1
  Sb  Sb7  1  0.99123428  0.99123428  0.99170766  1
  Sb  Sb8  1  0.00876572  0.00876572  0.34162634  1
  Sb  Sb9  1  0.00000000  0.00000000  0.66666700  1
  P  P10  1  0.35387642  0.35387642  0.42464965  1
  P  P11  1  0.35422910  0.35422910  0.75134590  1
  P  P12  1  0.35595396  0.35595396  0.07689255  1
  P  P13  1  0.64404604  0.64404604  0.25644045  1
  P  P14  1  0.64577090  0.64577090  0.58198710  1
  P  P15  1  0.64612358  0.64612358  0.90868435  1
  O  O16  1  0.23579749  0.68959623  0.08063056  1
  O  O17  1  0.24996317  0.68781212  0.42261933  1
  O  O18  1  0.24839343  0.68857735  0.75192782  1
  O  O19  1  0.31142265  0.75160657  0.58140618  1
  O  O20  1  0.31040377  0.76420251  0.25270244  1
  O  O21  1  0.31218788  0.75003683  0.91071367  1
  O  O22  1  0.75017150  0.75017150  0.19515837  1
  O  O23  1  0.75299501  0.75299501  0.52178175  1
  O  O24  1  0.74878068  0.74878068  0.84726740  1
  O  O25  1  0.27532621  0.27532621  0.00842695  1
  O  O26  1  0.74652935  0.74652935  0.97303499  1
  O  O27  1  0.73568585  0.73568585  0.64974109  1
  O  O28  1  0.72467379  0.72467379  0.32490605  1
  O  O29  1  0.24982850  0.24982850  0.13817463  1
  O  O30  1  0.25347065  0.25347065  0.36029901  1
  O  O31  1  0.25121932  0.25121932  0.48606560  1
  O  O32  1  0.26431415  0.26431415  0.68359191  1
  O  O33  1  0.24700499  0.24700499  0.81155125  1
  O  O34  1  0.76420251  0.31040377  0.25270244  1
  O  O35  1  0.75003683  0.31218788  0.91071367  1
  O  O36  1  0.75160657  0.31142265  0.58140618  1
  O  O37  1  0.68959623  0.23579749  0.08063056  1
  O  O38  1  0.68857735  0.24839343  0.75192782  1
  O  O39  1  0.68781212  0.24996317  0.42261933  1
