# generated using pymatgen
data_PrBiO4
_symmetry_space_group_name_H-M   'P 1'
_cell_length_a   8.01763692
_cell_length_b   5.72464792
_cell_length_c   8.04107185
_cell_angle_alpha   89.95902755
_cell_angle_beta   81.73514689
_cell_angle_gamma   89.87575614
_symmetry_Int_Tables_number   1
_chemical_formula_structural   PrBiO4
_chemical_formula_sum   'Pr4 Bi4 O16'
_cell_volume   365.23631373
_cell_formula_units_Z   4
loop_
 _symmetry_equiv_pos_site_id
 _symmetry_equiv_pos_as_xyz
  1  'x, y, z'
loop_
 _atom_site_type_symbol
 _atom_site_label
 _atom_site_symmetry_multiplicity
 _atom_site_fract_x
 _atom_site_fract_y
 _atom_site_fract_z
 _atom_site_occupancy
  Pr  Pr0  1  0.36191951  0.26983726  0.39188455  1
  Pr  Pr1  1  0.36030007  0.23025487  0.89351966  1
  Pr  Pr2  1  0.63969993  0.76974513  0.10648034  1
  Pr  Pr3  1  0.63808049  0.73016274  0.60811545  1
  Bi  Bi4  1  0.16228813  0.77003943  0.18922301  1
  Bi  Bi5  1  0.16251790  0.72935065  0.68893250  1
  Bi  Bi6  1  0.83748210  0.27064935  0.31106750  1
  Bi  Bi7  1  0.83771187  0.22996057  0.81077699  1
  O  O8  1  0.07648455  0.10218603  0.30916377  1
  O  O9  1  0.17333310  0.61191703  0.43373014  1
  O  O10  1  0.07509065  0.39980670  0.81150192  1
  O  O11  1  0.33883558  0.50092124  0.12280186  1
  O  O12  1  0.17538902  0.88665011  0.93342783  1
  O  O13  1  0.33845379  0.99827467  0.62150558  1
  O  O14  1  0.38645504  0.98804780  0.16857186  1
  O  O15  1  0.61393653  0.48939967  0.33081236  1
  O  O16  1  0.38606347  0.51060033  0.66918764  1
  O  O17  1  0.61354496  0.01195220  0.83142814  1
  O  O18  1  0.66154621  0.00172533  0.37849442  1
  O  O19  1  0.82461098  0.11334989  0.06657217  1
  O  O20  1  0.66116442  0.49907876  0.87719814  1
  O  O21  1  0.92490935  0.60019330  0.18849808  1
  O  O22  1  0.82666690  0.38808297  0.56626986  1
  O  O23  1  0.92351545  0.89781397  0.69083623  1
