# generated using pymatgen
data_Na3AsO4
_symmetry_space_group_name_H-M   'P 1'
_cell_length_a   7.12790930
_cell_length_b   6.07130644
_cell_length_c   5.66792889
_cell_angle_alpha   90.00000000
_cell_angle_beta   90.00000000
_cell_angle_gamma   90.00000000
_symmetry_Int_Tables_number   1
_chemical_formula_structural   Na3AsO4
_chemical_formula_sum   'Na6 As2 O8'
_cell_volume   245.28371290
_cell_formula_units_Z   2
loop_
 _symmetry_equiv_pos_site_id
 _symmetry_equiv_pos_as_xyz
  1  'x, y, z'
loop_
 _atom_site_type_symbol
 _atom_site_label
 _atom_site_symmetry_multiplicity
 _atom_site_fract_x
 _atom_site_fract_y
 _atom_site_fract_z
 _atom_site_occupancy
  Na  Na0  1  0.00000000  0.15797378  0.49503833  1
  Na  Na1  1  0.24842076  0.32594822  0.99560425  1
  Na  Na2  1  0.25157924  0.67405178  0.49560425  1
  Na  Na3  1  0.50000000  0.84202622  0.99503833  1
  Na  Na4  1  0.74842076  0.67405178  0.49560425  1
  Na  Na5  1  0.75157924  0.32594822  0.99560425  1
  As  As6  1  0.00000000  0.82854135  0.00156919  1
  As  As7  1  0.50000000  0.17145865  0.50156919  1
  O  O8  1  0.00000000  0.09892653  0.90427282  1
  O  O9  1  0.00000000  0.82306025  0.30597074  1
  O  O10  1  0.30111777  0.30593195  0.40111521  1
  O  O11  1  0.19888223  0.69406805  0.90111521  1
  O  O12  1  0.50000000  0.17693975  0.80597074  1
  O  O13  1  0.50000000  0.90107347  0.40427282  1
  O  O14  1  0.80111777  0.69406805  0.90111521  1
  O  O15  1  0.69888223  0.30593195  0.40111521  1
