# generated using pymatgen
data_Mg3(AsO4)2
_symmetry_space_group_name_H-M   'P 1'
_cell_length_a   5.36565220
_cell_length_b   8.45371127
_cell_length_c   7.96360193
_cell_angle_alpha   90.00000000
_cell_angle_beta   95.72246317
_cell_angle_gamma   90.00000000
_symmetry_Int_Tables_number   1
_chemical_formula_structural   Mg3(AsO4)2
_chemical_formula_sum   'Mg6 As4 O16'
_cell_volume   359.42623915
_cell_formula_units_Z   2
loop_
 _symmetry_equiv_pos_site_id
 _symmetry_equiv_pos_as_xyz
  1  'x, y, z'
loop_
 _atom_site_type_symbol
 _atom_site_label
 _atom_site_symmetry_multiplicity
 _atom_site_fract_x
 _atom_site_fract_y
 _atom_site_fract_z
 _atom_site_occupancy
  Mg  Mg0  1  0.00000000  0.00000000  0.50000000  1
  Mg  Mg1  1  0.10083020  0.35549117  0.60119476  1
  Mg  Mg2  1  0.39916980  0.85549117  0.89880524  1
  Mg  Mg3  1  0.50000000  0.50000000  0.00000000  1
  Mg  Mg4  1  0.60083020  0.14450883  0.10119476  1
  Mg  Mg5  1  0.89916980  0.64450883  0.39880524  1
  As  As6  1  0.04380077  0.30608375  0.19541990  1
  As  As7  1  0.45619923  0.80608375  0.30458010  1
  As  As8  1  0.54380077  0.19391625  0.69541990  1
  As  As9  1  0.95619923  0.69391625  0.80458010  1
  O  O10  1  0.07151570  0.87356574  0.74093462  1
  O  O11  1  0.06156183  0.43674374  0.36152706  1
  O  O12  1  0.19270058  0.64644949  0.95830270  1
  O  O13  1  0.17152665  0.80402276  0.38374552  1
  O  O14  1  0.30729942  0.14644949  0.54169730  1
  O  O15  1  0.42848430  0.37356574  0.75906538  1
  O  O16  1  0.32847335  0.30402276  0.11625448  1
  O  O17  1  0.43843817  0.93674374  0.13847294  1
  O  O18  1  0.56156183  0.06325626  0.86152706  1
  O  O19  1  0.67152665  0.69597724  0.88374552  1
  O  O20  1  0.57151570  0.62643426  0.24093462  1
  O  O21  1  0.69270058  0.85355051  0.45830270  1
  O  O22  1  0.82847335  0.19597724  0.61625448  1
  O  O23  1  0.80729942  0.35355051  0.04169730  1
  O  O24  1  0.93843817  0.56325626  0.63847294  1
  O  O25  1  0.92848430  0.12643426  0.25906538  1
