# generated using pymatgen
data_Ti(FeO2)4
_symmetry_space_group_name_H-M   'P 1'
_cell_length_a   5.91943560
_cell_length_b   6.00918676
_cell_length_c   6.04233127
_cell_angle_alpha   60.18128936
_cell_angle_beta   59.53526521
_cell_angle_gamma   59.49715980
_symmetry_Int_Tables_number   1
_chemical_formula_structural   Ti(FeO2)4
_chemical_formula_sum   'Ti1 Fe4 O8'
_cell_volume   151.06131521
_cell_formula_units_Z   1
loop_
 _symmetry_equiv_pos_site_id
 _symmetry_equiv_pos_as_xyz
  1  'x, y, z'
loop_
 _atom_site_type_symbol
 _atom_site_label
 _atom_site_symmetry_multiplicity
 _atom_site_fract_x
 _atom_site_fract_y
 _atom_site_fract_z
 _atom_site_occupancy
  Fe  Fe0  1  0.14997732  0.11804184  0.11393900  1
  Fe  Fe1  1  0.50000000  0.00000000  0.50000000  1
  Fe  Fe2  1  0.50000000  0.50000000  0.50000000  1
  Fe  Fe3  1  0.85002268  0.88195816  0.88606100  1
  O  O4  1  0.28062107  0.25434542  0.23670655  1
  O  O5  1  0.28062107  0.72832696  0.23670655  1
  O  O6  1  0.28538090  0.24271019  0.72919872  1
  O  O7  1  0.73509727  0.25963845  0.24562583  1
  O  O8  1  0.26490273  0.74036155  0.75437417  1
  O  O9  1  0.71461910  0.75728981  0.27080128  1
  O  O10  1  0.71937893  0.27167304  0.76329345  1
  O  O11  1  0.71937893  0.74565458  0.76329345  1
  Ti  Ti12  1  0.50000000  0.50000000  0.00000000  1
