# generated using pymatgen
data_RbB2P2HO9
_symmetry_space_group_name_H-M   'P 1'
_cell_length_a   6.86357258
_cell_length_b   12.30746778
_cell_length_c   8.94739355
_cell_angle_alpha   90.00000000
_cell_angle_beta   97.60954987
_cell_angle_gamma   90.00000000
_symmetry_Int_Tables_number   1
_chemical_formula_structural   RbB2P2HO9
_chemical_formula_sum   'Rb4 B8 P8 H4 O36'
_cell_volume   749.15885299
_cell_formula_units_Z   4
loop_
 _symmetry_equiv_pos_site_id
 _symmetry_equiv_pos_as_xyz
  1  'x, y, z'
loop_
 _atom_site_type_symbol
 _atom_site_label
 _atom_site_symmetry_multiplicity
 _atom_site_fract_x
 _atom_site_fract_y
 _atom_site_fract_z
 _atom_site_occupancy
  Rb  Rb0  1  0.27247128  0.62045426  0.81033213  1
  Rb  Rb1  1  0.27247128  0.87954574  0.31033213  1
  Rb  Rb2  1  0.72752872  0.12045426  0.68966787  1
  Rb  Rb3  1  0.72752872  0.37954574  0.18966787  1
  B  B4  1  0.06814127  0.36213529  0.63958378  1
  B  B5  1  0.06814127  0.13786471  0.13958378  1
  B  B6  1  0.38361837  0.36442244  0.53082004  1
  B  B7  1  0.38361837  0.13557756  0.03082004  1
  B  B8  1  0.61638163  0.86442244  0.96917996  1
  B  B9  1  0.61638163  0.63557756  0.46917996  1
  B  B10  1  0.93185873  0.86213529  0.86041622  1
  B  B11  1  0.93185873  0.63786471  0.36041622  1
  P  P12  1  0.12740863  0.29193541  0.94252491  1
  P  P13  1  0.12740863  0.20806459  0.44252491  1
  P  P14  1  0.28976043  0.96182540  0.82284731  1
  P  P15  1  0.28976043  0.53817460  0.32284731  1
  P  P16  1  0.71023957  0.46182540  0.67715269  1
  P  P17  1  0.71023957  0.03817460  0.17715269  1
  P  P18  1  0.87259137  0.79193541  0.55747509  1
  P  P19  1  0.87259137  0.70806459  0.05747509  1
  H  H20  1  0.22222702  0.01987302  0.58855812  1
  H  H21  1  0.22222702  0.48012698  0.08855812  1
  H  H22  1  0.77777298  0.51987302  0.91144188  1
  H  H23  1  0.77777298  0.98012698  0.41144188  1
  O  O24  1  0.00935479  0.79525029  0.99548738  1
  O  O25  1  0.00935479  0.70474971  0.49548738  1
  O  O26  1  0.07171177  0.95413566  0.84750923  1
  O  O27  1  0.06224930  0.28468585  0.76953665  1
  O  O28  1  0.07171177  0.54586434  0.34750923  1
  O  O29  1  0.10492542  0.09514861  0.50311496  1
  O  O30  1  0.06224930  0.21531415  0.26953665  1
  O  O31  1  0.10492542  0.40485139  0.00311496  1
  O  O32  1  0.25737111  0.40679836  0.62988824  1
  O  O33  1  0.34400995  0.25040988  0.98511863  1
  O  O34  1  0.31120571  0.95910306  0.65171603  1
  O  O35  1  0.37626065  0.07164962  0.88329675  1
  O  O36  1  0.25737111  0.09320164  0.12988824  1
  O  O37  1  0.40431079  0.86376078  0.89994262  1
  O  O38  1  0.34400995  0.24959012  0.48511863  1
  O  O39  1  0.31120571  0.54089694  0.15171603  1
  O  O40  1  0.37626065  0.42835038  0.38329675  1
  O  O41  1  0.40431079  0.63623922  0.39994262  1
  O  O42  1  0.59568921  0.36376078  0.60005738  1
  O  O43  1  0.62373935  0.57164962  0.61670325  1
  O  O44  1  0.68879429  0.45910306  0.84828397  1
  O  O45  1  0.65599005  0.75040988  0.51488137  1
  O  O46  1  0.59568921  0.13623922  0.10005738  1
  O  O47  1  0.74262889  0.90679836  0.87011176  1
  O  O48  1  0.62373935  0.92835038  0.11670325  1
  O  O49  1  0.68879429  0.04089694  0.34828397  1
  O  O50  1  0.65599005  0.74959012  0.01488137  1
  O  O51  1  0.74262889  0.59320164  0.37011176  1
  O  O52  1  0.89507458  0.59514861  0.99688504  1
  O  O53  1  0.93775070  0.78468585  0.73046335  1
  O  O54  1  0.89507458  0.90485139  0.49688504  1
  O  O55  1  0.92828823  0.45413566  0.65249077  1
  O  O56  1  0.93775070  0.71531415  0.23046335  1
  O  O57  1  0.92828823  0.04586434  0.15249077  1
  O  O58  1  0.99064521  0.29525029  0.50451262  1
  O  O59  1  0.99064521  0.20474971  0.00451262  1
