# generated using pymatgen
data_AgRuO4
_symmetry_space_group_name_H-M   'P 1'
_cell_length_a   7.03978114
_cell_length_b   7.03978114
_cell_length_c   7.03978114
_cell_angle_alpha   135.93970200
_cell_angle_beta   135.93970200
_cell_angle_gamma   64.07357065
_symmetry_Int_Tables_number   1
_chemical_formula_structural   AgRuO4
_chemical_formula_sum   'Ag2 Ru2 O8'
_cell_volume   166.44272257
_cell_formula_units_Z   2
loop_
 _symmetry_equiv_pos_site_id
 _symmetry_equiv_pos_as_xyz
  1  'x, y, z'
loop_
 _atom_site_type_symbol
 _atom_site_label
 _atom_site_symmetry_multiplicity
 _atom_site_fract_x
 _atom_site_fract_y
 _atom_site_fract_z
 _atom_site_occupancy
  Ag  Ag0  1  0.50000000  0.50000000  0.00000000  1
  Ag  Ag1  1  0.25000000  0.75000000  0.50000000  1
  Ru  Ru2  1  0.00000000  0.00000000  0.00000000  1
  Ru  Ru3  1  0.75000000  0.25000000  0.50000000  1
  O  O4  1  0.68066188  0.06811914  0.91014571  1
  O  O5  1  0.59202657  0.47948282  0.41014571  1
  O  O6  1  0.52051718  0.93066188  0.11254375  1
  O  O7  1  0.93188086  0.84202657  0.61254375  1
  O  O8  1  0.22948282  0.31933812  0.38745625  1
  O  O9  1  0.81811914  0.40797343  0.88745625  1
  O  O10  1  0.06933812  0.18188086  0.58985429  1
  O  O11  1  0.15797343  0.77051718  0.08985429  1
