# generated using pymatgen
data_Na2ZnPHO5
_symmetry_space_group_name_H-M   'P 1'
_cell_length_a   8.64033624
_cell_length_b   10.01706363
_cell_length_c   5.85393321
_cell_angle_alpha   90.00000000
_cell_angle_beta   104.93595616
_cell_angle_gamma   90.00000000
_symmetry_Int_Tables_number   1
_chemical_formula_structural   Na2ZnPHO5
_chemical_formula_sum   'Na8 Zn4 P4 H4 O20'
_cell_volume   489.54475363
_cell_formula_units_Z   4
loop_
 _symmetry_equiv_pos_site_id
 _symmetry_equiv_pos_as_xyz
  1  'x, y, z'
loop_
 _atom_site_type_symbol
 _atom_site_label
 _atom_site_symmetry_multiplicity
 _atom_site_fract_x
 _atom_site_fract_y
 _atom_site_fract_z
 _atom_site_occupancy
  Na  Na0  1  0.30309643  0.14416029  0.68561212  1
  Na  Na1  1  0.38490971  0.82998606  0.64618816  1
  Na  Na2  1  0.30309643  0.35583971  0.18561212  1
  Na  Na3  1  0.38490971  0.67001394  0.14618816  1
  Na  Na4  1  0.61509029  0.32998606  0.85381184  1
  Na  Na5  1  0.69690357  0.64416029  0.81438788  1
  Na  Na6  1  0.61509029  0.17001394  0.35381184  1
  Na  Na7  1  0.69690357  0.85583971  0.31438788  1
  Zn  Zn8  1  0.01078491  0.85956413  0.78172907  1
  Zn  Zn9  1  0.01078491  0.64043587  0.28172907  1
  Zn  Zn10  1  0.98921509  0.35956413  0.71827093  1
  Zn  Zn11  1  0.98921509  0.14043587  0.21827093  1
  P  P12  1  0.29666153  0.50772160  0.63719161  1
  P  P13  1  0.29666153  0.99227840  0.13719161  1
  P  P14  1  0.70333847  0.00772160  0.86280839  1
  P  P15  1  0.70333847  0.49227840  0.36280839  1
  H  H16  1  0.04047993  0.62549508  0.87042007  1
  H  H17  1  0.04047993  0.87450492  0.37042007  1
  H  H18  1  0.95952007  0.12549508  0.62957993  1
  H  H19  1  0.95952007  0.37450492  0.12957993  1
  O  O20  1  0.01633753  0.19307305  0.55772153  1
  O  O21  1  0.01633753  0.30692695  0.05772153  1
  O  O22  1  0.15342367  0.50075343  0.76028166  1
  O  O23  1  0.23040846  0.93531840  0.87691474  1
  O  O24  1  0.15342367  0.99924657  0.26028166  1
  O  O25  1  0.23040846  0.56468160  0.37691474  1
  O  O26  1  0.36135206  0.36657619  0.61703864  1
  O  O27  1  0.42090014  0.60623774  0.78220485  1
  O  O28  1  0.36135206  0.13342381  0.11703864  1
  O  O29  1  0.42090014  0.89376226  0.28220485  1
  O  O30  1  0.57909986  0.10623774  0.71779515  1
  O  O31  1  0.63864794  0.86657619  0.88296136  1
  O  O32  1  0.57909986  0.39376226  0.21779515  1
  O  O33  1  0.63864794  0.63342381  0.38296136  1
  O  O34  1  0.76959154  0.43531840  0.62308526  1
  O  O35  1  0.84657633  0.00075343  0.73971834  1
  O  O36  1  0.76959154  0.06468160  0.12308526  1
  O  O37  1  0.84657633  0.49924657  0.23971834  1
  O  O38  1  0.98366247  0.69307305  0.94227847  1
  O  O39  1  0.98366247  0.80692695  0.44227847  1
