# generated using pymatgen
data_Mn3(PO4)2
_symmetry_space_group_name_H-M   'P 1'
_cell_length_a   5.27420108
_cell_length_b   8.74702273
_cell_length_c   7.85043921
_cell_angle_alpha   90.00000000
_cell_angle_beta   86.95861985
_cell_angle_gamma   90.00000000
_symmetry_Int_Tables_number   1
_chemical_formula_structural   Mn3(PO4)2
_chemical_formula_sum   'Mn6 P4 O16'
_cell_volume   361.65855935
_cell_formula_units_Z   2
loop_
 _symmetry_equiv_pos_site_id
 _symmetry_equiv_pos_as_xyz
  1  'x, y, z'
loop_
 _atom_site_type_symbol
 _atom_site_label
 _atom_site_symmetry_multiplicity
 _atom_site_fract_x
 _atom_site_fract_y
 _atom_site_fract_z
 _atom_site_occupancy
  Mn  Mn0  1  0.00000000  0.00000000  0.00000000  1
  Mn  Mn1  1  0.09257764  0.64224804  0.88346491  1
  Mn  Mn2  1  0.40742236  0.14224804  0.61653509  1
  Mn  Mn3  1  0.50000000  0.50000000  0.50000000  1
  Mn  Mn4  1  0.59257764  0.85775196  0.38346491  1
  Mn  Mn5  1  0.90742236  0.35775196  0.11653509  1
  P  P6  1  0.03657247  0.69318107  0.30116159  1
  P  P7  1  0.46342753  0.19318107  0.19883841  1
  P  P8  1  0.53657247  0.80681893  0.80116159  1
  P  P9  1  0.96342753  0.30681893  0.69883841  1
  O  O10  1  0.04260718  0.58063954  0.14683941  1
  O  O11  1  0.04467093  0.14351165  0.75777363  1
  O  O12  1  0.19701271  0.19474862  0.12550231  1
  O  O13  1  0.17021855  0.35573361  0.56188160  1
  O  O14  1  0.30298729  0.69474862  0.37449769  1
  O  O15  1  0.32978145  0.85573361  0.93811840  1
  O  O16  1  0.45739282  0.08063954  0.35316059  1
  O  O17  1  0.45532907  0.64351165  0.74222637  1
  O  O18  1  0.54467093  0.35648835  0.25777363  1
  O  O19  1  0.54260718  0.91936046  0.64683941  1
  O  O20  1  0.67021855  0.14426639  0.06188160  1
  O  O21  1  0.69701271  0.30525138  0.62550231  1
  O  O22  1  0.82978145  0.64426639  0.43811840  1
  O  O23  1  0.80298729  0.80525138  0.87449769  1
  O  O24  1  0.95532907  0.85648835  0.24222637  1
  O  O25  1  0.95739282  0.41936046  0.85316059  1
