# generated using pymatgen
data_Li4TiCu3(PO4)4
_symmetry_space_group_name_H-M   'P 1'
_cell_length_a   5.09405342
_cell_length_b   6.34655718
_cell_length_c   10.12610480
_cell_angle_alpha   89.98033718
_cell_angle_beta   90.84165768
_cell_angle_gamma   91.15170081
_symmetry_Int_Tables_number   1
_chemical_formula_structural   Li4TiCu3(PO4)4
_chemical_formula_sum   'Li4 Ti1 Cu3 P4 O16'
_cell_volume   327.27249388
_cell_formula_units_Z   1
loop_
 _symmetry_equiv_pos_site_id
 _symmetry_equiv_pos_as_xyz
  1  'x, y, z'
loop_
 _atom_site_type_symbol
 _atom_site_label
 _atom_site_symmetry_multiplicity
 _atom_site_fract_x
 _atom_site_fract_y
 _atom_site_fract_z
 _atom_site_occupancy
  Li  Li0  1  0.10242169  0.03094623  0.12851214  1
  Li  Li1  1  0.43464130  0.01863764  0.59385621  1
  Li  Li2  1  0.60762877  0.53491926  0.37459586  1
  Li  Li3  1  0.87850667  0.56277531  0.89018840  1
  Ti  Ti4  1  0.96663416  0.24537478  0.71393061  1
  Cu  Cu5  1  0.39067772  0.74696483  0.80330904  1
  Cu  Cu6  1  0.10470307  0.74398210  0.30762693  1
  Cu  Cu7  1  0.62043741  0.24666825  0.19171478  1
  P  P8  1  0.09066994  0.25541333  0.39658765  1
  P  P9  1  0.38309740  0.25092685  0.89286666  1
  P  P10  1  0.57964759  0.75476250  0.10702051  1
  P  P11  1  0.93082262  0.75047873  0.60250421  1
  O  O12  1  0.15765154  0.23721603  0.55410733  1
  O  O13  1  0.23913225  0.06914772  0.80999134  1
  O  O14  1  0.21150585  0.43534540  0.83219280  1
  O  O15  1  0.20701145  0.06192706  0.32895586  1
  O  O16  1  0.23963124  0.45427921  0.34922148  1
  O  O17  1  0.23202558  0.76604494  0.62020717  1
  O  O18  1  0.27968983  0.76809590  0.12896846  1
  O  O19  1  0.34083300  0.23085080  0.04008909  1
  O  O20  1  0.62713537  0.73672596  0.95535629  1
  O  O21  1  0.67616592  0.27007772  0.85464780  1
  O  O22  1  0.69838449  0.56179292  0.18081434  1
  O  O23  1  0.73532671  0.95348675  0.15942358  1
  O  O24  1  0.78944496  0.26680624  0.38387848  1
  O  O25  1  0.82639905  0.54731637  0.67754757  1
  O  O26  1  0.80018981  0.95620792  0.66507580  1
  O  O27  1  0.84115258  0.74009024  0.45754960  1
