# generated using pymatgen
data_YH2(CO3)2
_symmetry_space_group_name_H-M   'P 1'
_cell_length_a   7.84601310
_cell_length_b   8.53852335
_cell_length_c   9.62255252
_cell_angle_alpha   90.00000000
_cell_angle_beta   90.00000000
_cell_angle_gamma   117.35148669
_symmetry_Int_Tables_number   1
_chemical_formula_structural   YH2(CO3)2
_chemical_formula_sum   'Y4 H8 C8 O24'
_cell_volume   572.57867470
_cell_formula_units_Z   4
loop_
 _symmetry_equiv_pos_site_id
 _symmetry_equiv_pos_as_xyz
  1  'x, y, z'
loop_
 _atom_site_type_symbol
 _atom_site_label
 _atom_site_symmetry_multiplicity
 _atom_site_fract_x
 _atom_site_fract_y
 _atom_site_fract_z
 _atom_site_occupancy
  Y  Y0  1  0.29340872  0.58681844  0.25000000  1
  Y  Y1  1  0.29303483  0.58606965  0.75000000  1
  Y  Y2  1  0.70659128  0.41318156  0.75000000  1
  Y  Y3  1  0.70696517  0.41393035  0.25000000  1
  H  H4  1  0.00283955  0.79678163  0.25851064  1
  H  H5  1  0.99716045  0.20321837  0.75851064  1
  H  H6  1  0.99955517  0.20337991  0.23177137  1
  H  H7  1  0.20382574  0.20337991  0.26822863  1
  H  H8  1  0.20605791  0.20321837  0.74148936  1
  H  H9  1  0.79394209  0.79678163  0.24148936  1
  H  H10  1  0.79617426  0.79662009  0.76822863  1
  H  H11  1  0.00044483  0.79662009  0.73177137  1
  C  C12  1  0.40186227  0.00061767  0.74028196  1
  C  C13  1  0.59875540  0.00061767  0.75971804  1
  C  C14  1  0.40124460  0.99938233  0.25971804  1
  C  C15  1  0.59813773  0.99938233  0.24028196  1
  C  C16  1  0.08293144  0.54941702  0.00039632  1
  C  C17  1  0.46648457  0.54941702  0.49960368  1
  C  C18  1  0.53351543  0.45058298  0.99960368  1
  C  C19  1  0.91706856  0.45058298  0.50039632  1
  O  O20  1  0.00154715  0.49761626  0.38182921  1
  O  O21  1  0.00010991  0.49467772  0.61955741  1
  O  O22  1  0.25368186  0.85077245  0.25934474  1
  O  O23  1  0.25599039  0.85164490  0.72548513  1
  O  O24  1  0.26962257  0.64195994  0.99953490  1
  O  O25  1  0.13780948  0.27561896  0.25000000  1
  O  O26  1  0.13757465  0.27515031  0.75000000  1
  O  O27  1  0.37233737  0.64195994  0.50046510  1
  O  O28  1  0.59565451  0.85164490  0.77451487  1
  O  O29  1  0.59709060  0.85077245  0.24065526  1
  O  O30  1  0.49606911  0.49761626  0.11817079  1
  O  O31  1  0.49456782  0.49467772  0.88044259  1
  O  O32  1  0.50393089  0.50238374  0.61817079  1
  O  O33  1  0.50543218  0.50532228  0.38044259  1
  O  O34  1  0.40290940  0.14922755  0.74065526  1
  O  O35  1  0.40434549  0.14835510  0.27451487  1
  O  O36  1  0.62766263  0.35804006  0.00046510  1
  O  O37  1  0.86242535  0.72484969  0.25000000  1
  O  O38  1  0.86219052  0.72438104  0.75000000  1
  O  O39  1  0.73037743  0.35804006  0.49953490  1
  O  O40  1  0.74400961  0.14835510  0.22548513  1
  O  O41  1  0.74631814  0.14922755  0.75934474  1
  O  O42  1  0.99989009  0.50532228  0.11955741  1
  O  O43  1  0.99845285  0.50238374  0.88182921  1
