# generated using pymatgen
data_Li2Mn3SbO8
_symmetry_space_group_name_H-M   'P 1'
_cell_length_a   6.02187947
_cell_length_b   6.02179876
_cell_length_c   9.79419565
_cell_angle_alpha   90.00200604
_cell_angle_beta   89.99899582
_cell_angle_gamma   119.99955194
_symmetry_Int_Tables_number   1
_chemical_formula_structural   Li2Mn3SbO8
_chemical_formula_sum   'Li4 Mn6 Sb2 O16'
_cell_volume   307.58111320
_cell_formula_units_Z   2
loop_
 _symmetry_equiv_pos_site_id
 _symmetry_equiv_pos_as_xyz
  1  'x, y, z'
loop_
 _atom_site_type_symbol
 _atom_site_label
 _atom_site_symmetry_multiplicity
 _atom_site_fract_x
 _atom_site_fract_y
 _atom_site_fract_z
 _atom_site_occupancy
  Li  Li0  1  0.33332058  0.66667507  0.90421081  1
  Li  Li1  1  0.00000507  0.99999807  0.98629602  1
  Li  Li2  1  0.99999493  0.99999300  0.48629602  1
  Li  Li3  1  0.66667942  0.33335449  0.40421081  1
  Mn  Mn4  1  0.16102750  0.82220727  0.21329956  1
  Mn  Mn5  1  0.17781336  0.33884924  0.21328772  1
  Mn  Mn6  1  0.66119045  0.83899132  0.21328477  1
  Mn  Mn7  1  0.33880955  0.17780087  0.71328477  1
  Mn  Mn8  1  0.83897250  0.66118077  0.71329956  1
  Mn  Mn9  1  0.82218664  0.16103488  0.71328772  1
  Sb  Sb10  1  0.33334110  0.66667978  0.48527607  1
  Sb  Sb11  1  0.66665890  0.33333867  0.98527607  1
  O  O12  1  0.14231548  0.80683027  0.59122908  1
  O  O13  1  0.03622012  0.47874855  0.35014725  1
  O  O14  1  0.33334794  0.66668766  0.11799580  1
  O  O15  1  0.00001122  0.00002784  0.29616591  1
  O  O16  1  0.99998878  0.00001662  0.79616591  1
  O  O17  1  0.19315695  0.33549477  0.59121322  1
  O  O18  1  0.44252923  0.96380616  0.35015341  1
  O  O19  1  0.52127357  0.55749756  0.35014024  1
  O  O20  1  0.33548646  0.19317446  0.09122114  1
  O  O21  1  0.66451354  0.85768800  0.59122114  1
  O  O22  1  0.55747077  0.52127692  0.85015341  1
  O  O23  1  0.47872643  0.03622499  0.85014024  1
  O  O24  1  0.66665206  0.33333973  0.61799580  1
  O  O25  1  0.85768452  0.66451579  0.09122908  1
  O  O26  1  0.96377988  0.44252844  0.85014725  1
  O  O27  1  0.80684305  0.14233782  0.09121322  1
