# generated using pymatgen
data_KMn6O12
_symmetry_space_group_name_H-M   'P 1'
_cell_length_a   8.34087964
_cell_length_b   8.34087964
_cell_length_c   8.34087964
_cell_angle_alpha   106.39079369
_cell_angle_beta   115.82509444
_cell_angle_gamma   106.39079369
_symmetry_Int_Tables_number   1
_chemical_formula_structural   KMn6O12
_chemical_formula_sum   'K2 Mn12 O24'
_cell_volume   442.53276466
_cell_formula_units_Z   2
loop_
 _symmetry_equiv_pos_site_id
 _symmetry_equiv_pos_as_xyz
  1  'x, y, z'
loop_
 _atom_site_type_symbol
 _atom_site_label
 _atom_site_symmetry_multiplicity
 _atom_site_fract_x
 _atom_site_fract_y
 _atom_site_fract_z
 _atom_site_occupancy
  K  K0  1  0.45624416  0.00000000  0.45624416  1
  K  K1  1  0.87708984  0.00000000  0.87708984  1
  Mn  Mn2  1  0.83304233  0.51570180  0.01599248  1
  Mn  Mn3  1  0.65133124  0.81667696  0.16582634  1
  Mn  Mn4  1  0.98418362  0.81667696  0.49867972  1
  Mn  Mn5  1  0.68200176  0.18332304  0.16750666  1
  Mn  Mn6  1  0.83465428  0.48550490  0.65133124  1
  Mn  Mn7  1  0.50029067  0.48429820  0.31734052  1
  Mn  Mn8  1  0.49867972  0.51449510  0.68200176  1
  Mn  Mn9  1  0.16582634  0.51449510  0.34914938  1
  Mn  Mn10  1  0.31734052  0.81704985  0.83304233  1
  Mn  Mn11  1  0.34914938  0.18332304  0.83465428  1
  Mn  Mn12  1  0.01599248  0.18295015  0.50029067  1
  Mn  Mn13  1  0.16750666  0.48550490  0.98418362  1
  O  O14  1  0.83179761  0.70771392  0.20924931  1
  O  O15  1  0.48918350  0.95124103  0.12970373  1
  O  O16  1  0.82129777  0.95187549  0.46391072  1
  O  O17  1  0.87605751  0.37507977  0.16609399  1
  O  O18  1  0.79101521  0.62492023  0.50097873  1
  O  O19  1  0.45727549  0.62492023  0.16723901  1
  O  O20  1  0.84414950  0.04875897  0.20362927  1
  O  O21  1  0.50153539  0.29228608  0.12408469  1
  O  O22  1  0.83235527  0.29003648  0.45727549  1
  O  O23  1  0.46391072  0.64261395  0.51203623  1
  O  O24  1  0.12970373  0.64052023  0.17846270  1
  O  O25  1  0.79539053  0.64052023  0.84414950  1
  O  O26  1  0.20362927  0.35947977  0.15487030  1
  O  O27  1  0.86942228  0.35738605  0.82129777  1
  O  O28  1  0.53794247  0.35947977  0.48918350  1
  O  O29  1  0.16723901  0.70996352  0.54231879  1
  O  O30  1  0.50097873  0.70996352  0.87605751  1
  O  O31  1  0.15487030  0.95124103  0.79539053  1
  O  O32  1  0.54231879  0.37507977  0.83235527  1
  O  O33  1  0.20924931  0.37745070  0.50153539  1
  O  O34  1  0.12408469  0.62254930  0.83179761  1
  O  O35  1  0.17846270  0.04875897  0.53794247  1
  O  O36  1  0.51203623  0.04812451  0.86942228  1
  O  O37  1  0.16609399  0.29003648  0.79101521  1
