# generated using pymatgen
data_Ti3PdO
_symmetry_space_group_name_H-M   'P 1'
_cell_length_a   5.71514393
_cell_length_b   5.86220331
_cell_length_c   5.71514393
_cell_angle_alpha   60.82642101
_cell_angle_beta   90.00000000
_cell_angle_gamma   119.17357899
_symmetry_Int_Tables_number   1
_chemical_formula_structural   Ti3PdO
_chemical_formula_sum   'Ti6 Pd2 O2'
_cell_volume   138.70758738
_cell_formula_units_Z   2
loop_
 _symmetry_equiv_pos_site_id
 _symmetry_equiv_pos_as_xyz
  1  'x, y, z'
loop_
 _atom_site_type_symbol
 _atom_site_label
 _atom_site_symmetry_multiplicity
 _atom_site_fract_x
 _atom_site_fract_y
 _atom_site_fract_z
 _atom_site_occupancy
  Ti  Ti0  1  0.70720900  1.00000000  0.20748838  1
  Ti  Ti1  1  0.20748838  0.00000000  0.29279100  1
  Ti  Ti2  1  0.74989799  0.49979597  0.25010201  1
  Ti  Ti3  1  0.79251162  1.00000000  0.70720900  1
  Ti  Ti4  1  0.29279100  0.00000000  0.79251162  1
  Ti  Ti5  1  0.25010201  0.50020403  0.74989799  1
  Pd  Pd6  1  0.25000000  0.50000000  0.25000000  1
  Pd  Pd7  1  0.75000000  0.50000000  0.75000000  1
  O  O8  1  0.00000000  0.00000000  0.00000000  1
  O  O9  1  0.50000000  0.00000000  0.50000000  1
