# generated using pymatgen
data_Sr16V8O31
_symmetry_space_group_name_H-M   'P 1'
_cell_length_a   6.91823371
_cell_length_b   11.78383541
_cell_length_c   11.06271467
_cell_angle_alpha   62.65496219
_cell_angle_beta   90.34894405
_cell_angle_gamma   102.15539576
_symmetry_Int_Tables_number   1
_chemical_formula_structural   Sr16V8O31
_chemical_formula_sum   'Sr16 V8 O31'
_cell_volume   778.85351510
_cell_formula_units_Z   1
loop_
 _symmetry_equiv_pos_site_id
 _symmetry_equiv_pos_as_xyz
  1  'x, y, z'
loop_
 _atom_site_type_symbol
 _atom_site_label
 _atom_site_symmetry_multiplicity
 _atom_site_fract_x
 _atom_site_fract_y
 _atom_site_fract_z
 _atom_site_occupancy
  Sr  Sr0  1  0.27780269  0.56943688  0.96951144  1
  Sr  Sr1  1  0.03646383  0.32895048  0.83388110  1
  Sr  Sr2  1  0.47219731  0.18056312  0.90548856  1
  Sr  Sr3  1  0.78829440  0.08153406  0.70187656  1
  Sr  Sr4  1  0.23466119  0.93550771  0.77612707  1
  Sr  Sr5  1  0.03637554  0.32605397  0.33825954  1
  Sr  Sr6  1  0.71362446  0.42394603  0.53674046  1
  Sr  Sr7  1  0.53997114  0.82569858  0.57971096  1
  Sr  Sr8  1  0.97204595  0.68143168  0.65221799  1
  Sr  Sr9  1  0.47237330  0.18263356  0.40986636  1
  Sr  Sr10  1  0.27762670  0.56736644  0.46513364  1
  Sr  Sr11  1  0.77795405  0.06856832  0.22278201  1
  Sr  Sr12  1  0.21002886  0.92430142  0.29528904  1
  Sr  Sr13  1  0.96170560  0.66846594  0.17312344  1
  Sr  Sr14  1  0.51533881  0.81449229  0.09887293  1
  Sr  Sr15  1  0.71353617  0.42104952  0.04111890  1
  V  V16  1  0.24791131  0.24895748  0.62491113  1
  V  V17  1  0.74655640  0.74386055  0.87121226  1
  V  V18  1  0.00412424  0.00318667  0.49912200  1
  V  V19  1  0.49921125  0.49861724  0.74936815  1
  V  V20  1  0.50208869  0.50104252  0.25008887  1
  V  V21  1  0.25078875  0.25138276  0.12563185  1
  V  V22  1  0.74587576  0.74681333  0.37587800  1
  V  V23  1  0.00344360  0.00613945  0.00378774  1
  O  O24  1  0.11919010  0.11874959  0.81259161  1
  O  O25  1  0.37500000  0.37500000  0.93750000  1
  O  O26  1  0.75902632  0.05521795  0.95356761  1
  O  O27  1  0.48970178  0.16817476  0.66642039  1
  O  O28  1  0.00770876  0.32908484  0.58500229  1
  O  O29  1  0.99097368  0.69478205  0.92143239  1
  O  O30  1  0.13328078  0.13120085  0.55956244  1
  O  O31  1  0.25447976  0.57650765  0.71754041  1
  O  O32  1  0.54860370  0.84054762  0.84808054  1
  O  O33  1  0.62521361  0.62266083  0.81715195  1
  O  O34  1  0.73291257  0.41285788  0.79618511  1
  O  O35  1  0.36746693  0.36781337  0.69170722  1
  O  O36  1  0.37500000  0.37500000  0.43750000  1
  O  O37  1  0.24624061  0.92016355  0.54022859  1
  O  O38  1  0.88195514  0.88004258  0.69783435  1
  O  O39  1  0.76294161  0.08324066  0.45637748  1
  O  O40  1  0.61412762  0.61545270  0.57305820  1
  O  O41  1  0.13587238  0.13454730  0.30194180  1
  O  O42  1  0.26029822  0.58182524  0.20857961  1
  O  O43  1  0.61671922  0.61879915  0.31543756  1
  O  O44  1  0.38253307  0.38218663  0.18329278  1
  O  O45  1  0.01708743  0.33714212  0.07881489  1
  O  O46  1  0.49552024  0.17349235  0.15745959  1
  O  O47  1  0.87500000  0.87500000  0.43750000  1
  O  O48  1  0.50375939  0.82983645  0.33477141  1
  O  O49  1  0.98705839  0.66675934  0.41862252  1
  O  O50  1  0.12478639  0.12733917  0.05784805  1
  O  O51  1  0.74229124  0.42091516  0.28999771  1
  O  O52  1  0.20139630  0.90945238  0.02691946  1
  O  O53  1  0.63080990  0.63125041  0.06240839  1
  O  O54  1  0.86804486  0.86995742  0.17716565  1
