# generated using pymatgen
data_Li2Cu2F7
_symmetry_space_group_name_H-M   'P 1'
_cell_length_a   13.03595161
_cell_length_b   5.90006211
_cell_length_c   7.02866279
_cell_angle_alpha   89.96350834
_cell_angle_beta   89.99430284
_cell_angle_gamma   90.01377913
_symmetry_Int_Tables_number   1
_chemical_formula_structural   Li2Cu2F7
_chemical_formula_sum   'Li8 Cu8 F28'
_cell_volume   540.59487998
_cell_formula_units_Z   4
loop_
 _symmetry_equiv_pos_site_id
 _symmetry_equiv_pos_as_xyz
  1  'x, y, z'
loop_
 _atom_site_type_symbol
 _atom_site_label
 _atom_site_symmetry_multiplicity
 _atom_site_fract_x
 _atom_site_fract_y
 _atom_site_fract_z
 _atom_site_occupancy
  Li  Li0  1  0.04835648  0.90825899  0.25684569  1
  Li  Li1  1  0.18819127  0.83628323  0.75395158  1
  Li  Li2  1  0.31177183  0.33601658  0.25406574  1
  Li  Li3  1  0.45159915  0.40843723  0.75669650  1
  Li  Li4  1  0.54828549  0.59187433  0.25700760  1
  Li  Li5  1  0.68826417  0.66369260  0.75397640  1
  Li  Li6  1  0.81187434  0.16380049  0.25418574  1
  Li  Li7  1  0.95176434  0.09171826  0.75688207  1
  Cu  Cu8  1  0.10331280  0.35165992  0.52263610  1
  Cu  Cu9  1  0.10461840  0.36978842  0.99584541  1
  Cu  Cu10  1  0.39525414  0.86978074  0.49599397  1
  Cu  Cu11  1  0.39672643  0.85191992  0.02290158  1
  Cu  Cu12  1  0.60328260  0.14827442  0.52273653  1
  Cu  Cu13  1  0.60467549  0.12997710  0.99583996  1
  Cu  Cu14  1  0.89535534  0.63015015  0.49620311  1
  Cu  Cu15  1  0.89668840  0.64840328  0.02262308  1
  F  F16  1  0.03621356  0.68299259  0.44954453  1
  F  F17  1  0.04064121  0.70411978  0.05349404  1
  F  F18  1  0.10192629  0.09513433  0.72351476  1
  F  F19  1  0.09388586  0.22000360  0.24959015  1
  F  F20  1  0.12024562  0.53192672  0.75822471  1
  F  F21  1  0.23841553  0.41418526  0.47457194  1
  F  F22  1  0.24062299  0.40621064  0.02987293  1
  F  F23  1  0.25930286  0.90617840  0.52994856  1
  F  F24  1  0.26158372  0.91420581  0.97458145  1
  F  F25  1  0.37977372  0.03200890  0.25796690  1
  F  F26  1  0.40611703  0.71959402  0.75025166  1
  F  F27  1  0.39796661  0.59520750  0.22288375  1
  F  F28  1  0.45952924  0.20435507  0.55320646  1
  F  F29  1  0.46405619  0.18225837  0.94944133  1
  F  F30  1  0.53634070  0.81708438  0.44954077  1
  F  F31  1  0.54074821  0.79630711  0.05329995  1
  F  F32  1  0.60200166  0.40458561  0.72347588  1
  F  F33  1  0.59392824  0.27962652  0.24910823  1
  F  F34  1  0.62012180  0.96874867  0.75864845  1
  F  F35  1  0.73832470  0.08579747  0.47459850  1
  F  F36  1  0.74031944  0.09379920  0.02968669  1
  F  F37  1  0.75931305  0.59374362  0.52993618  1
  F  F38  1  0.76156743  0.58575356  0.97459452  1
  F  F39  1  0.87974391  0.46795191  0.25820838  1
  F  F40  1  0.90611547  0.78007098  0.74994931  1
  F  F41  1  0.89796695  0.90498507  0.22291254  1
  F  F42  1  0.95948790  0.29567556  0.55324056  1
  F  F43  1  0.96371945  0.31745370  0.94933177  1
