# generated using pymatgen
data_Ti2CoO5
_symmetry_space_group_name_H-M   'P 1'
_cell_length_a   3.75305168
_cell_length_b   5.25369451
_cell_length_c   10.19630949
_cell_angle_alpha   90.00000000
_cell_angle_beta   90.00000000
_cell_angle_gamma   110.92724203
_symmetry_Int_Tables_number   1
_chemical_formula_structural   Ti2CoO5
_chemical_formula_sum   'Ti4 Co2 O10'
_cell_volume   187.78262471
_cell_formula_units_Z   2
loop_
 _symmetry_equiv_pos_site_id
 _symmetry_equiv_pos_as_xyz
  1  'x, y, z'
loop_
 _atom_site_type_symbol
 _atom_site_label
 _atom_site_symmetry_multiplicity
 _atom_site_fract_x
 _atom_site_fract_y
 _atom_site_fract_z
 _atom_site_occupancy
  Ti  Ti0  1  0.13385723  0.26771446  0.56781991  1
  Ti  Ti1  1  0.13385723  0.26771446  0.93218009  1
  Ti  Ti2  1  0.86614277  0.73228554  0.06781991  1
  Ti  Ti3  1  0.86614277  0.73228554  0.43218009  1
  Co  Co4  1  0.18995946  0.37991891  0.25000000  1
  Co  Co5  1  0.81004054  0.62008109  0.75000000  1
  O  O6  1  0.04610868  0.09221637  0.11196376  1
  O  O7  1  0.31388845  0.62777589  0.06057673  1
  O  O8  1  0.04610868  0.09221637  0.38803624  1
  O  O9  1  0.31388845  0.62777589  0.43942327  1
  O  O10  1  0.21425378  0.42850756  0.75000000  1
  O  O11  1  0.78574622  0.57149244  0.25000000  1
  O  O12  1  0.68611155  0.37222411  0.56057673  1
  O  O13  1  0.95389132  0.90778363  0.88803624  1
  O  O14  1  0.68611155  0.37222411  0.93942327  1
  O  O15  1  0.95389132  0.90778363  0.61196376  1
