# generated using pymatgen
data_VP6(WO8)3
_symmetry_space_group_name_H-M   'P 1'
_cell_length_a   8.92477650
_cell_length_b   8.92477646
_cell_length_c   8.92477592
_cell_angle_alpha   58.98266908
_cell_angle_beta   58.98266752
_cell_angle_gamma   58.98267001
_symmetry_Int_Tables_number   1
_chemical_formula_structural   VP6(WO8)3
_chemical_formula_sum   'V1 P6 W3 O24'
_cell_volume   490.99723626
_cell_formula_units_Z   1
loop_
 _symmetry_equiv_pos_site_id
 _symmetry_equiv_pos_as_xyz
  1  'x, y, z'
loop_
 _atom_site_type_symbol
 _atom_site_label
 _atom_site_symmetry_multiplicity
 _atom_site_fract_x
 _atom_site_fract_y
 _atom_site_fract_z
 _atom_site_occupancy
  V  V0  1  0.85838220  0.85838220  0.85838220  1
  P  P1  1  0.03504320  0.75083342  0.46788439  1
  P  P2  1  0.46788439  0.03504320  0.75083342  1
  P  P3  1  0.75083342  0.46788439  0.03504320  1
  P  P4  1  0.24636855  0.54004254  0.96324241  1
  P  P5  1  0.54004254  0.96324241  0.24636855  1
  P  P6  1  0.96324241  0.24636855  0.54004254  1
  W  W7  1  0.14236736  0.14236736  0.14236736  1
  W  W8  1  0.35723091  0.35723091  0.35723091  1
  W  W9  1  0.64232993  0.64232993  0.64232993  1
  O  O10  1  0.13136393  0.28570659  0.50407681  1
  O  O11  1  0.28570659  0.50407681  0.13136393  1
  O  O12  1  0.06316959  0.92014606  0.28605468  1
  O  O13  1  0.50407681  0.13136393  0.28570659  1
  O  O14  1  0.21245060  0.58107817  0.43245069  1
  O  O15  1  0.00879466  0.77589722  0.63443461  1
  O  O16  1  0.28605468  0.06316959  0.92014606  1
  O  O17  1  0.43245069  0.21245060  0.58107817  1
  O  O18  1  0.58107817  0.43245069  0.21245060  1
  O  O19  1  0.22199785  0.36516534  0.99231147  1
  O  O20  1  0.08017695  0.71216223  0.94106218  1
  O  O21  1  0.36516534  0.99231147  0.22199785  1
  O  O22  1  0.63443461  0.00879466  0.77589722  1
  O  O23  1  0.92014606  0.28605468  0.06316959  1
  O  O24  1  0.77589722  0.63443461  0.00879466  1
  O  O25  1  0.42320287  0.55878506  0.78880451  1
  O  O26  1  0.55878506  0.78880451  0.42320287  1
  O  O27  1  0.71216223  0.94106218  0.08017695  1
  O  O28  1  0.99231147  0.22199785  0.36516534  1
  O  O29  1  0.78880451  0.42320287  0.55878506  1
  O  O30  1  0.49014174  0.86703964  0.71979863  1
  O  O31  1  0.94106218  0.08017695  0.71216223  1
  O  O32  1  0.71979863  0.49014174  0.86703964  1
  O  O33  1  0.86703964  0.71979863  0.49014174  1
