# generated using pymatgen
data_Gd6WO12
_symmetry_space_group_name_H-M   'P 1'
_cell_length_a   6.58206519
_cell_length_b   6.58206519
_cell_length_c   6.58206526
_cell_angle_alpha   98.61807757
_cell_angle_beta   98.61807751
_cell_angle_gamma   98.61807645
_symmetry_Int_Tables_number   1
_chemical_formula_structural   Gd6WO12
_chemical_formula_sum   'Gd6 W1 O12'
_cell_volume   274.39137216
_cell_formula_units_Z   1
loop_
 _symmetry_equiv_pos_site_id
 _symmetry_equiv_pos_as_xyz
  1  'x, y, z'
loop_
 _atom_site_type_symbol
 _atom_site_label
 _atom_site_symmetry_multiplicity
 _atom_site_fract_x
 _atom_site_fract_y
 _atom_site_fract_z
 _atom_site_occupancy
  Gd  Gd0  1  0.38930832  0.85652949  0.68746807  1
  Gd  Gd1  1  0.31253193  0.61069168  0.14347051  1
  Gd  Gd2  1  0.14347051  0.31253193  0.61069168  1
  Gd  Gd3  1  0.85652949  0.68746807  0.38930832  1
  Gd  Gd4  1  0.68746807  0.38930832  0.85652949  1
  Gd  Gd5  1  0.61069168  0.14347051  0.31253193  1
  W  W6  1  0.00000000  0.00000000  0.00000000  1
  O  O7  1  0.03221440  0.92649411  0.70640702  1
  O  O8  1  0.29359298  0.96778560  0.07350589  1
  O  O9  1  0.17716702  0.59147829  0.43417263  1
  O  O10  1  0.56582737  0.82283298  0.40852171  1
  O  O11  1  0.07350589  0.29359298  0.96778560  1
  O  O12  1  0.40852171  0.56582737  0.82283298  1
  O  O13  1  0.59147829  0.43417263  0.17716702  1
  O  O14  1  0.92649411  0.70640702  0.03221440  1
  O  O15  1  0.43417263  0.17716702  0.59147829  1
  O  O16  1  0.82283298  0.40852171  0.56582737  1
  O  O17  1  0.70640702  0.03221440  0.92649411  1
  O  O18  1  0.96778560  0.07350589  0.29359298  1
