# generated using pymatgen
data_Li2CoGe3O8
_symmetry_space_group_name_H-M   'P 1'
_cell_length_a   8.30044824
_cell_length_b   8.30044824
_cell_length_c   8.30044824
_cell_angle_alpha   90.00000000
_cell_angle_beta   90.00000000
_cell_angle_gamma   90.00000000
_symmetry_Int_Tables_number   1
_chemical_formula_structural   Li2CoGe3O8
_chemical_formula_sum   'Li8 Co4 Ge12 O32'
_cell_volume   571.87964276
_cell_formula_units_Z   4
loop_
 _symmetry_equiv_pos_site_id
 _symmetry_equiv_pos_as_xyz
  1  'x, y, z'
loop_
 _atom_site_type_symbol
 _atom_site_label
 _atom_site_symmetry_multiplicity
 _atom_site_fract_x
 _atom_site_fract_y
 _atom_site_fract_z
 _atom_site_occupancy
  Li  Li0  1  0.00024608  0.00024608  0.00024608  1
  Li  Li1  1  0.99975392  0.50024608  0.49975392  1
  Li  Li2  1  0.12568925  0.87431075  0.37431075  1
  Li  Li3  1  0.37431075  0.12568925  0.87431075  1
  Li  Li4  1  0.50024608  0.49975392  0.99975392  1
  Li  Li5  1  0.49975392  0.99975392  0.50024608  1
  Li  Li6  1  0.62568925  0.62568925  0.62568925  1
  Li  Li7  1  0.87431075  0.37431075  0.12568925  1
  Co  Co8  1  0.24867945  0.24867945  0.24867945  1
  Co  Co9  1  0.25132055  0.75132055  0.74867945  1
  Co  Co10  1  0.74867945  0.25132055  0.75132055  1
  Co  Co11  1  0.75132055  0.74867945  0.25132055  1
  Ge  Ge12  1  0.13014510  0.12459326  0.62792714  1
  Ge  Ge13  1  0.12459326  0.62792714  0.13014510  1
  Ge  Ge14  1  0.12792714  0.36985490  0.87540674  1
  Ge  Ge15  1  0.37540674  0.37207286  0.63014510  1
  Ge  Ge16  1  0.37207286  0.63014510  0.37540674  1
  Ge  Ge17  1  0.36985490  0.87540674  0.12792714  1
  Ge  Ge18  1  0.62792714  0.13014510  0.12459326  1
  Ge  Ge19  1  0.63014510  0.37540674  0.37207286  1
  Ge  Ge20  1  0.62459326  0.87207286  0.86985490  1
  Ge  Ge21  1  0.87540674  0.12792714  0.36985490  1
  Ge  Ge22  1  0.86985490  0.62459326  0.87207286  1
  Ge  Ge23  1  0.87207286  0.86985490  0.62459326  1
  O  O24  1  0.12828935  0.39333766  0.10201945  1
  O  O25  1  0.13648874  0.36351126  0.63648874  1
  O  O26  1  0.14709005  0.85644652  0.11928548  1
  O  O27  1  0.10666234  0.89798055  0.62828935  1
  O  O28  1  0.10201945  0.12828935  0.39333766  1
  O  O29  1  0.11928548  0.14709005  0.85644652  1
  O  O30  1  0.14355348  0.61928548  0.35290995  1
  O  O31  1  0.11156809  0.61156809  0.88843191  1
  O  O32  1  0.39333766  0.10201945  0.12828935  1
  O  O33  1  0.38843191  0.38843191  0.38843191  1
  O  O34  1  0.35290995  0.14355348  0.61928548  1
  O  O35  1  0.35644652  0.38071452  0.85290995  1
  O  O36  1  0.36351126  0.63648874  0.13648874  1
  O  O37  1  0.38071452  0.85290995  0.35644652  1
  O  O38  1  0.37171065  0.60666234  0.60201945  1
  O  O39  1  0.39798055  0.87171065  0.89333766  1
  O  O40  1  0.63648874  0.13648874  0.36351126  1
  O  O41  1  0.62828935  0.10666234  0.89798055  1
  O  O42  1  0.61928548  0.35290995  0.14355348  1
  O  O43  1  0.60201945  0.37171065  0.60666234  1
  O  O44  1  0.60666234  0.60201945  0.37171065  1
  O  O45  1  0.64709005  0.64355348  0.88071452  1
  O  O46  1  0.61156809  0.88843191  0.11156809  1
  O  O47  1  0.64355348  0.88071452  0.64709005  1
  O  O48  1  0.85644652  0.11928548  0.14709005  1
  O  O49  1  0.88843191  0.11156809  0.61156809  1
  O  O50  1  0.85290995  0.35644652  0.38071452  1
  O  O51  1  0.89333766  0.39798055  0.87171065  1
  O  O52  1  0.89798055  0.62828935  0.10666234  1
  O  O53  1  0.88071452  0.64709005  0.64355348  1
  O  O54  1  0.87171065  0.89333766  0.39798055  1
  O  O55  1  0.86351126  0.86351126  0.86351126  1
