# generated using pymatgen
data_La6WO12
_symmetry_space_group_name_H-M   'P 1'
_cell_length_a   6.86288754
_cell_length_b   6.86288786
_cell_length_c   6.86288780
_cell_angle_alpha   98.42494498
_cell_angle_beta   98.42493992
_cell_angle_gamma   98.42494092
_symmetry_Int_Tables_number   1
_chemical_formula_structural   La6WO12
_chemical_formula_sum   'La6 W1 O12'
_cell_volume   311.60271398
_cell_formula_units_Z   1
loop_
 _symmetry_equiv_pos_site_id
 _symmetry_equiv_pos_as_xyz
  1  'x, y, z'
loop_
 _atom_site_type_symbol
 _atom_site_label
 _atom_site_symmetry_multiplicity
 _atom_site_fract_x
 _atom_site_fract_y
 _atom_site_fract_z
 _atom_site_occupancy
  La  La0  1  0.39310339  0.85702842  0.69444381  1
  La  La1  1  0.30555619  0.60689661  0.14297158  1
  La  La2  1  0.14297158  0.30555619  0.60689661  1
  La  La3  1  0.85702842  0.69444381  0.39310339  1
  La  La4  1  0.69444381  0.39310339  0.85702842  1
  La  La5  1  0.60689661  0.14297158  0.30555619  1
  W  W6  1  0.00000000  0.00000000  0.00000000  1
  O  O7  1  0.03040242  0.93125195  0.71583781  1
  O  O8  1  0.28416219  0.96959658  0.06874805  1
  O  O9  1  0.17673051  0.59403072  0.43929896  1
  O  O10  1  0.56070104  0.82326949  0.40596928  1
  O  O11  1  0.06874805  0.28416219  0.96959658  1
  O  O12  1  0.40596928  0.56070104  0.82326949  1
  O  O13  1  0.59403072  0.43929896  0.17673051  1
  O  O14  1  0.93125195  0.71583781  0.03040242  1
  O  O15  1  0.43929896  0.17673051  0.59403072  1
  O  O16  1  0.82326949  0.40596928  0.56070104  1
  O  O17  1  0.71583781  0.03040242  0.93125195  1
  O  O18  1  0.96959658  0.06874805  0.28416219  1
