# generated using pymatgen
data_Fe(AsO2)2
_symmetry_space_group_name_H-M   'P 1'
_cell_length_a   8.62907879
_cell_length_b   8.62905073
_cell_length_c   5.76230978
_cell_angle_alpha   90.00687489
_cell_angle_beta   90.00642075
_cell_angle_gamma   89.96805005
_symmetry_Int_Tables_number   1
_chemical_formula_structural   Fe(AsO2)2
_chemical_formula_sum   'Fe4 As8 O16'
_cell_volume   429.06588552
_cell_formula_units_Z   4
loop_
 _symmetry_equiv_pos_site_id
 _symmetry_equiv_pos_as_xyz
  1  'x, y, z'
loop_
 _atom_site_type_symbol
 _atom_site_label
 _atom_site_symmetry_multiplicity
 _atom_site_fract_x
 _atom_site_fract_y
 _atom_site_fract_z
 _atom_site_occupancy
  Fe  Fe0  1  0.99998138  0.49997940  0.24999923  1
  Fe  Fe1  1  -0.00000015  0.49998722  0.74999791  1
  Fe  Fe2  1  0.50000613  -0.00001198  0.24999969  1
  Fe  Fe3  1  0.50004877  0.00002373  0.74999691  1
  As  As4  1  0.17528232  0.81010001  0.49953008  1
  As  As5  1  0.18991393  0.17539447  0.00058836  1
  As  As6  1  0.31007803  0.67529114  0.00037821  1
  As  As7  1  0.32450835  0.31011909  0.49961585  1
  As  As8  1  0.67540210  0.68984408  0.49940351  1
  As  As9  1  0.68997533  0.32469937  0.00052329  1
  As  As10  1  0.81019278  0.82449913  0.00039191  1
  As  As11  1  0.82469713  0.18999549  0.49956685  1
  O  O12  1  0.10986536  0.64196610  0.00150966  1
  O  O13  1  0.14194630  0.60984799  0.49843360  1
  O  O14  1  0.18281666  0.31720365  0.25005421  1
  O  O15  1  0.18097481  0.31900891  0.75012909  1
  O  O16  1  0.31697798  0.81700676  0.24996653  1
  O  O17  1  0.31891254  0.81895813  0.74996537  1
  O  O18  1  0.35785930  0.10983914  0.49839462  1
  O  O19  1  0.39018324  0.14210326  0.00168420  1
  O  O20  1  0.60992072  0.85796099  0.00162102  1
  O  O21  1  0.64199178  0.89009723  0.49830857  1
  O  O22  1  0.68300743  0.18302028  0.25003138  1
  O  O23  1  0.68104780  0.18108834  0.75003553  1
  O  O24  1  0.81722969  0.68279019  0.24994929  1
  O  O25  1  0.81901322  0.68096754  0.74987211  1
  O  O26  1  0.85786389  0.39024663  0.49849588  1
  O  O27  1  0.89027221  0.35788572  0.00155514  1
