# generated using pymatgen
data_Na2MnO3
_symmetry_space_group_name_H-M   'P 1'
_cell_length_a   6.41761037
_cell_length_b   5.29300129
_cell_length_c   10.92533049
_cell_angle_alpha   85.70628302
_cell_angle_beta   155.96279513
_cell_angle_gamma   105.66009607
_symmetry_Int_Tables_number   1
_chemical_formula_structural   Na2MnO3
_chemical_formula_sum   'Na4 Mn2 O6'
_cell_volume   130.87508958
_cell_formula_units_Z   2
loop_
 _symmetry_equiv_pos_site_id
 _symmetry_equiv_pos_as_xyz
  1  'x, y, z'
loop_
 _atom_site_type_symbol
 _atom_site_label
 _atom_site_symmetry_multiplicity
 _atom_site_fract_x
 _atom_site_fract_y
 _atom_site_fract_z
 _atom_site_occupancy
  Na  Na0  1  0.50387678  0.49512196  0.00179807  1
  Na  Na1  1  0.18236917  0.18274491  0.34017332  1
  Na  Na2  1  0.82809659  0.81679758  0.66425661  1
  Na  Na3  1  0.00499575  0.50012187  0.00176144  1
  Mn  Mn4  1  0.34029379  0.83380666  0.67055255  1
  Mn  Mn5  1  0.67161776  0.16488694  0.33652081  1
  O  O6  1  0.31852415  0.12398959  0.75957789  1
  O  O7  1  0.69827148  0.87692003  0.24947626  1
  O  O8  1  0.18924828  0.49986762  0.49455516  1
  O  O9  1  0.07086566  0.87608756  0.13611393  1
  O  O10  1  0.94449944  0.12197324  0.87287467  1
  O  O11  1  0.82013514  0.49978402  0.51129731  1
