# generated using pymatgen
data_NbVO5
_symmetry_space_group_name_H-M   'P 1'
_cell_length_a   12.14019119
_cell_length_b   5.63166180
_cell_length_c   7.11290147
_cell_angle_alpha   90.00000000
_cell_angle_beta   90.00000000
_cell_angle_gamma   90.00000000
_symmetry_Int_Tables_number   1
_chemical_formula_structural   NbVO5
_chemical_formula_sum   'Nb4 V4 O20'
_cell_volume   486.30516830
_cell_formula_units_Z   4
loop_
 _symmetry_equiv_pos_site_id
 _symmetry_equiv_pos_as_xyz
  1  'x, y, z'
loop_
 _atom_site_type_symbol
 _atom_site_label
 _atom_site_symmetry_multiplicity
 _atom_site_fract_x
 _atom_site_fract_y
 _atom_site_fract_z
 _atom_site_occupancy
  Nb  Nb0  1  0.05891573  0.75000000  0.84308518  1
  Nb  Nb1  1  0.44108427  0.25000000  0.34308518  1
  Nb  Nb2  1  0.55891573  0.75000000  0.65691482  1
  Nb  Nb3  1  0.94108427  0.25000000  0.15691482  1
  V  V4  1  0.15411877  0.25000000  0.52827458  1
  V  V5  1  0.34588123  0.75000000  0.02827458  1
  V  V6  1  0.65411877  0.25000000  0.97172542  1
  V  V7  1  0.84588123  0.75000000  0.47172542  1
  O  O8  1  0.00000000  0.00000000  0.00000000  1
  O  O9  1  0.00000000  0.50000000  0.00000000  1
  O  O10  1  0.07453611  0.25000000  0.32327813  1
  O  O11  1  0.12475669  0.00005741  0.65675994  1
  O  O12  1  0.12475669  0.49994259  0.65675994  1
  O  O13  1  0.20487980  0.75000000  0.96564996  1
  O  O14  1  0.29512020  0.25000000  0.46564996  1
  O  O15  1  0.37524331  -0.00005741  0.15675994  1
  O  O16  1  0.37524331  0.50005741  0.15675994  1
  O  O17  1  0.42546389  0.75000000  0.82327813  1
  O  O18  1  0.50000000  0.00000000  0.50000000  1
  O  O19  1  0.50000000  0.50000000  0.50000000  1
  O  O20  1  0.57453611  0.25000000  0.17672187  1
  O  O21  1  0.62475669  0.00005741  0.84324006  1
  O  O22  1  0.62475669  0.49994259  0.84324006  1
  O  O23  1  0.70487980  0.75000000  0.53435004  1
  O  O24  1  0.79512020  0.25000000  0.03435004  1
  O  O25  1  0.87524331  0.50005741  0.34324006  1
  O  O26  1  0.87524331  -0.00005741  0.34324006  1
  O  O27  1  0.92546389  0.75000000  0.67672187  1
