# generated using pymatgen
data_Bi3O4F
_symmetry_space_group_name_H-M   'P 1'
_cell_length_a   3.54009859
_cell_length_b   8.91252896
_cell_length_c   10.03086933
_cell_angle_alpha   66.69513909
_cell_angle_beta   90.00000000
_cell_angle_gamma   78.54476251
_symmetry_Int_Tables_number   1
_chemical_formula_structural   Bi3O4F
_chemical_formula_sum   'Bi6 O8 F2'
_cell_volume   283.78765844
_cell_formula_units_Z   2
loop_
 _symmetry_equiv_pos_site_id
 _symmetry_equiv_pos_as_xyz
  1  'x, y, z'
loop_
 _atom_site_type_symbol
 _atom_site_label
 _atom_site_symmetry_multiplicity
 _atom_site_fract_x
 _atom_site_fract_y
 _atom_site_fract_z
 _atom_site_occupancy
  Bi  Bi0  1  0.08585510  0.82828980  0.94163381  1
  Bi  Bi1  1  0.69772271  0.60455457  0.75726247  1
  Bi  Bi2  1  0.14703348  0.70593404  0.41425724  1
  Bi  Bi3  1  0.85296652  0.29406596  0.58574276  1
  Bi  Bi4  1  0.30227729  0.39544543  0.24273753  1
  Bi  Bi5  1  0.91414490  0.17171020  0.05836619  1
  O  O6  1  0.11562221  0.76875458  0.75429339  1
  O  O7  1  0.61725736  0.76548428  0.52374649  1
  O  O8  1  0.32951597  0.34096707  0.99604984  1
  O  O9  1  0.25650289  0.48699522  0.62311125  1
  O  O10  1  0.74349711  0.51300478  0.37688975  1
  O  O11  1  0.67048403  0.65903293  0.00395016  1
  O  O12  1  0.38274264  0.23451572  0.47625351  1
  O  O13  1  0.88437779  0.23124542  0.24570661  1
  F  F14  1  0.52501422  0.94997255  0.17935488  1
  F  F15  1  0.47498578  0.05002745  0.82064512  1
