# generated using pymatgen
data_HfP2O7
_symmetry_space_group_name_H-M   'P 1'
_cell_length_a   8.46878559
_cell_length_b   8.46970808
_cell_length_c   8.46972274
_cell_angle_alpha   90.00000000
_cell_angle_beta   90.00000000
_cell_angle_gamma   90.00000000
_symmetry_Int_Tables_number   1
_chemical_formula_structural   HfP2O7
_chemical_formula_sum   'Hf4 P8 O28'
_cell_volume   607.51747319
_cell_formula_units_Z   4
loop_
 _symmetry_equiv_pos_site_id
 _symmetry_equiv_pos_as_xyz
  1  'x, y, z'
loop_
 _atom_site_type_symbol
 _atom_site_label
 _atom_site_symmetry_multiplicity
 _atom_site_fract_x
 _atom_site_fract_y
 _atom_site_fract_z
 _atom_site_occupancy
  Hf  Hf0  1  0.00000000  0.00000000  0.00000000  1
  Hf  Hf1  1  0.00000000  0.50000000  0.50000000  1
  Hf  Hf2  1  0.50000000  0.00000000  0.50000000  1
  Hf  Hf3  1  0.50000000  0.50000000  0.00000000  1
  P  P4  1  0.10795865  0.89207859  0.39208456  1
  P  P5  1  0.10795865  0.60792141  0.89208456  1
  P  P6  1  0.39204135  0.10792141  0.89208456  1
  P  P7  1  0.39204135  0.39207859  0.39208456  1
  P  P8  1  0.60795865  0.60792141  0.60791544  1
  P  P9  1  0.60795865  0.89207859  0.10791544  1
  P  P10  1  0.89204135  0.10792141  0.60791544  1
  P  P11  1  0.89204135  0.39207859  0.10791544  1
  O  O12  1  0.00000000  0.00000000  0.50000000  1
  O  O13  1  0.00000000  0.50000000  0.00000000  1
  O  O14  1  0.05640826  0.72249327  0.42048989  1
  O  O15  1  0.05640826  0.77750673  0.92048989  1
  O  O16  1  0.07951111  0.94359590  0.22248946  1
  O  O17  1  0.07951111  0.55640410  0.72248946  1
  O  O18  1  0.22252081  0.07951509  0.94357984  1
  O  O19  1  0.22252081  0.42048491  0.44357984  1
  O  O20  1  0.27747919  0.57951509  0.94357984  1
  O  O21  1  0.27747919  0.92048491  0.44357984  1
  O  O22  1  0.42048889  0.05640410  0.72248946  1
  O  O23  1  0.42048889  0.44359590  0.22248946  1
  O  O24  1  0.44359174  0.27750673  0.92048989  1
  O  O25  1  0.44359174  0.22249327  0.42048989  1
  O  O26  1  0.50000000  0.50000000  0.50000000  1
  O  O27  1  0.50000000  0.00000000  0.00000000  1
  O  O28  1  0.55640826  0.72249327  0.07951011  1
  O  O29  1  0.55640826  0.77750673  0.57951011  1
  O  O30  1  0.57951111  0.55640410  0.77751054  1
  O  O31  1  0.57951111  0.94359590  0.27751054  1
  O  O32  1  0.72252081  0.07951509  0.55642016  1
  O  O33  1  0.72252081  0.42048491  0.05642016  1
  O  O34  1  0.77747919  0.57951509  0.55642016  1
  O  O35  1  0.77747919  0.92048491  0.05642016  1
  O  O36  1  0.92048889  0.05640410  0.77751054  1
  O  O37  1  0.92048889  0.44359590  0.27751054  1
  O  O38  1  0.94359174  0.22249327  0.07951011  1
  O  O39  1  0.94359174  0.27750673  0.57951011  1
