# generated using pymatgen
data_Rb2Fe2O3
_symmetry_space_group_name_H-M   'P 1'
_cell_length_a   12.09719317
_cell_length_b   6.37125854
_cell_length_c   8.23166599
_cell_angle_alpha   89.99986397
_cell_angle_beta   90.00083555
_cell_angle_gamma   90.00027715
_symmetry_Int_Tables_number   1
_chemical_formula_structural   Rb2Fe2O3
_chemical_formula_sum   'Rb8 Fe8 O12'
_cell_volume   634.45026682
_cell_formula_units_Z   4
loop_
 _symmetry_equiv_pos_site_id
 _symmetry_equiv_pos_as_xyz
  1  'x, y, z'
loop_
 _atom_site_type_symbol
 _atom_site_label
 _atom_site_symmetry_multiplicity
 _atom_site_fract_x
 _atom_site_fract_y
 _atom_site_fract_z
 _atom_site_occupancy
  Rb  Rb0  1  0.05844690  0.25000004  0.87719926  1
  Rb  Rb1  1  0.12077284  0.75000549  0.50324353  1
  Rb  Rb2  1  0.37923379  0.25000838  0.00324198  1
  Rb  Rb3  1  0.44155458  0.75000537  0.37720433  1
  Rb  Rb4  1  0.55844385  0.24999803  0.62280591  1
  Rb  Rb5  1  0.62076996  0.74999323  0.99676329  1
  Rb  Rb6  1  0.87922827  0.25000509  0.49675260  1
  Rb  Rb7  1  0.94155425  0.74999848  0.12280152  1
  Fe  Fe8  1  0.14530263  0.25000029  0.28038789  1
  Fe  Fe9  1  0.22683593  0.75000052  0.09836237  1
  Fe  Fe10  1  0.27317323  0.25000033  0.59842605  1
  Fe  Fe11  1  0.35468512  0.75000029  0.78046405  1
  Fe  Fe12  1  0.64530451  0.25000297  0.21956810  1
  Fe  Fe13  1  0.72683816  0.75000186  0.40164379  1
  Fe  Fe14  1  0.77317633  0.24999771  0.90155843  1
  Fe  Fe15  1  0.85470446  0.74999969  0.71956156  1
  O  O16  1  0.12383309  0.24999718  0.51368316  1
  O  O17  1  0.14597580  0.99935568  0.15185916  1
  O  O18  1  0.14597628  0.50064559  0.15185817  1
  O  O19  1  0.35400599  0.00069983  0.65185629  1
  O  O20  1  0.35400685  0.49929167  0.65185535  1
  O  O21  1  0.37614808  0.74999823  0.01370434  1
  O  O22  1  0.62385633  0.24999884  0.98629754  1
  O  O23  1  0.64598566  0.99933322  0.34815163  1
  O  O24  1  0.64598609  0.50066812  0.34815296  1
  O  O25  1  0.85401921  0.49932635  0.84814742  1
  O  O26  1  0.85402030  0.00067007  0.84814124  1
  O  O27  1  0.87616148  0.74999745  0.48630809  1
