# generated using pymatgen
data_Tm6WO12
_symmetry_space_group_name_H-M   'P 1'
_cell_length_a   6.39377562
_cell_length_b   6.39377562
_cell_length_c   6.39377573
_cell_angle_alpha   98.71375625
_cell_angle_beta   98.71375616
_cell_angle_gamma   98.71375437
_symmetry_Int_Tables_number   1
_chemical_formula_structural   Tm6WO12
_chemical_formula_sum   'Tm6 W1 O12'
_cell_volume   251.27713470
_cell_formula_units_Z   1
loop_
 _symmetry_equiv_pos_site_id
 _symmetry_equiv_pos_as_xyz
  1  'x, y, z'
loop_
 _atom_site_type_symbol
 _atom_site_label
 _atom_site_symmetry_multiplicity
 _atom_site_fract_x
 _atom_site_fract_y
 _atom_site_fract_z
 _atom_site_occupancy
  Tm  Tm0  1  0.38888156  0.85559067  0.68121197  1
  Tm  Tm1  1  0.31878803  0.61111844  0.14440933  1
  Tm  Tm2  1  0.14440933  0.31878803  0.61111844  1
  Tm  Tm3  1  0.85559067  0.68121197  0.38888156  1
  Tm  Tm4  1  0.68121197  0.38888156  0.85559067  1
  Tm  Tm5  1  0.61111844  0.14440933  0.31878803  1
  W  W6  1  0.00000000  0.00000000  0.00000000  1
  O  O7  1  0.03572677  0.92072859  0.69978298  1
  O  O8  1  0.30021702  0.96427323  0.07927141  1
  O  O9  1  0.17736981  0.59014475  0.42982511  1
  O  O10  1  0.57017489  0.82263019  0.40985525  1
  O  O11  1  0.07927141  0.30021702  0.96427323  1
  O  O12  1  0.40985525  0.57017489  0.82263019  1
  O  O13  1  0.59014475  0.42982511  0.17736981  1
  O  O14  1  0.92072859  0.69978298  0.03572677  1
  O  O15  1  0.42982511  0.17736981  0.59014475  1
  O  O16  1  0.82263019  0.40985525  0.57017489  1
  O  O17  1  0.69978298  0.03572677  0.92072859  1
  O  O18  1  0.96427323  0.07927141  0.30021702  1
