# generated using pymatgen
data_LiCr(CO3)2
_symmetry_space_group_name_H-M   'P 1'
_cell_length_a   4.66045018
_cell_length_b   5.73075247
_cell_length_c   4.66044990
_cell_angle_alpha   66.00746319
_cell_angle_beta   119.99999560
_cell_angle_gamma   113.99254525
_symmetry_Int_Tables_number   1
_chemical_formula_structural   LiCr(CO3)2
_chemical_formula_sum   'Li1 Cr1 C2 O6'
_cell_volume   95.17432997
_cell_formula_units_Z   1
loop_
 _symmetry_equiv_pos_site_id
 _symmetry_equiv_pos_as_xyz
  1  'x, y, z'
loop_
 _atom_site_type_symbol
 _atom_site_label
 _atom_site_symmetry_multiplicity
 _atom_site_fract_x
 _atom_site_fract_y
 _atom_site_fract_z
 _atom_site_occupancy
  Li  Li0  1  0.00000000  0.00000000  0.00000000  1
  Cr  Cr1  1  0.50000000  0.50000000  0.50000000  1
  C  C2  1  0.24354874  0.73064623  0.75645126  1
  C  C3  1  0.75645126  0.26935377  0.24354874  1
  O  O4  1  0.04033244  0.26598889  0.25978387  1
  O  O5  1  0.51455968  0.73401111  0.04033244  1
  O  O6  1  0.25978387  0.73401111  0.48544032  1
  O  O7  1  0.74021613  0.26598889  0.51455968  1
  O  O8  1  0.48544032  0.26598889  0.95966756  1
  O  O9  1  0.95966756  0.73401111  0.74021613  1
