# generated using pymatgen
data_Bi3Ir3O11
_symmetry_space_group_name_H-M   'P 1'
_cell_length_a   9.49239641
_cell_length_b   9.49239641
_cell_length_c   9.49239641
_cell_angle_alpha   90.00000000
_cell_angle_beta   90.00000000
_cell_angle_gamma   90.00000000
_symmetry_Int_Tables_number   1
_chemical_formula_structural   Bi3Ir3O11
_chemical_formula_sum   'Bi12 Ir12 O44'
_cell_volume   855.31797528
_cell_formula_units_Z   4
loop_
 _symmetry_equiv_pos_site_id
 _symmetry_equiv_pos_as_xyz
  1  'x, y, z'
loop_
 _atom_site_type_symbol
 _atom_site_label
 _atom_site_symmetry_multiplicity
 _atom_site_fract_x
 _atom_site_fract_y
 _atom_site_fract_z
 _atom_site_occupancy
  Bi  Bi0  1  0.00000000  0.00000000  0.50000000  1
  Bi  Bi1  1  0.00000000  0.50000000  0.00000000  1
  Bi  Bi2  1  0.11747142  0.11747142  0.11747142  1
  Bi  Bi3  1  0.11747142  0.38252858  0.38252858  1
  Bi  Bi4  1  0.38252858  0.11747142  0.38252858  1
  Bi  Bi5  1  0.38252858  0.38252858  0.11747142  1
  Bi  Bi6  1  0.50000000  0.50000000  0.50000000  1
  Bi  Bi7  1  0.50000000  0.00000000  0.00000000  1
  Bi  Bi8  1  0.61747142  0.61747142  0.88252858  1
  Bi  Bi9  1  0.61747142  0.88252858  0.61747142  1
  Bi  Bi10  1  0.88252858  0.61747142  0.61747142  1
  Bi  Bi11  1  0.88252858  0.88252858  0.88252858  1
  Ir  Ir12  1  0.09141232  0.75000000  0.25000000  1
  Ir  Ir13  1  0.25000000  0.09141232  0.75000000  1
  Ir  Ir14  1  0.25000000  0.75000000  0.59141232  1
  Ir  Ir15  1  0.25000000  0.75000000  0.90858768  1
  Ir  Ir16  1  0.25000000  0.40858768  0.75000000  1
  Ir  Ir17  1  0.40858768  0.75000000  0.25000000  1
  Ir  Ir18  1  0.59141232  0.25000000  0.75000000  1
  Ir  Ir19  1  0.75000000  0.25000000  0.09141232  1
  Ir  Ir20  1  0.75000000  0.25000000  0.40858768  1
  Ir  Ir21  1  0.75000000  0.59141232  0.25000000  1
  Ir  Ir22  1  0.75000000  0.90858768  0.25000000  1
  Ir  Ir23  1  0.90858768  0.25000000  0.75000000  1
  O  O24  1  0.03994907  0.08317489  0.74402780  1
  O  O25  1  0.03994907  0.41682511  0.75597220  1
  O  O26  1  0.08317489  0.74402780  0.03994907  1
  O  O27  1  0.08317489  0.75597220  0.46005093  1
  O  O28  1  0.11002039  0.75000000  0.75000000  1
  O  O29  1  0.14708387  0.14708387  0.35291613  1
  O  O30  1  0.14708387  0.35291613  0.14708387  1
  O  O31  1  0.25597220  0.96005093  0.91682511  1
  O  O32  1  0.25597220  0.53994907  0.58317489  1
  O  O33  1  0.25000000  0.61002039  0.25000000  1
  O  O34  1  0.25000000  0.88997961  0.25000000  1
  O  O35  1  0.25000000  0.25000000  0.61002039  1
  O  O36  1  0.25000000  0.25000000  0.88997961  1
  O  O37  1  0.24402780  0.53994907  0.91682511  1
  O  O38  1  0.24402780  0.96005093  0.58317489  1
  O  O39  1  0.35291613  0.14708387  0.14708387  1
  O  O40  1  0.35291613  0.35291613  0.35291613  1
  O  O41  1  0.38997961  0.75000000  0.75000000  1
  O  O42  1  0.41682511  0.75597220  0.03994907  1
  O  O43  1  0.41682511  0.74402780  0.46005093  1
  O  O44  1  0.46005093  0.08317489  0.75597220  1
  O  O45  1  0.46005093  0.41682511  0.74402780  1
  O  O46  1  0.53994907  0.58317489  0.25597220  1
  O  O47  1  0.53994907  0.91682511  0.24402780  1
  O  O48  1  0.58317489  0.25597220  0.53994907  1
  O  O49  1  0.58317489  0.24402780  0.96005093  1
  O  O50  1  0.61002039  0.25000000  0.25000000  1
  O  O51  1  0.64708387  0.64708387  0.64708387  1
  O  O52  1  0.64708387  0.85291613  0.85291613  1
  O  O53  1  0.75597220  0.03994907  0.41682511  1
  O  O54  1  0.75597220  0.46005093  0.08317489  1
  O  O55  1  0.75000000  0.11002039  0.75000000  1
  O  O56  1  0.75000000  0.38997961  0.75000000  1
  O  O57  1  0.75000000  0.75000000  0.11002039  1
  O  O58  1  0.75000000  0.75000000  0.38997961  1
  O  O59  1  0.74402780  0.03994907  0.08317489  1
  O  O60  1  0.74402780  0.46005093  0.41682511  1
  O  O61  1  0.85291613  0.64708387  0.85291613  1
  O  O62  1  0.85291613  0.85291613  0.64708387  1
  O  O63  1  0.88997961  0.25000000  0.25000000  1
  O  O64  1  0.91682511  0.25597220  0.96005093  1
  O  O65  1  0.91682511  0.24402780  0.53994907  1
  O  O66  1  0.96005093  0.91682511  0.25597220  1
  O  O67  1  0.96005093  0.58317489  0.24402780  1
