# generated using pymatgen
data_LiCuF4
_symmetry_space_group_name_H-M   'P 1'
_cell_length_a   9.89197840
_cell_length_b   6.80210196
_cell_length_c   7.95225389
_cell_angle_alpha   101.32981738
_cell_angle_beta   98.98120195
_cell_angle_gamma   105.80889340
_symmetry_Int_Tables_number   1
_chemical_formula_structural   LiCuF4
_chemical_formula_sum   'Li6 Cu6 F24'
_cell_volume   492.18570536
_cell_formula_units_Z   6
loop_
 _symmetry_equiv_pos_site_id
 _symmetry_equiv_pos_as_xyz
  1  'x, y, z'
loop_
 _atom_site_type_symbol
 _atom_site_label
 _atom_site_symmetry_multiplicity
 _atom_site_fract_x
 _atom_site_fract_y
 _atom_site_fract_z
 _atom_site_occupancy
  Li  Li0  1  0.10604691  0.49953544  0.81256668  1
  Li  Li1  1  0.26162900  0.99521744  0.52570064  1
  Li  Li2  1  0.34315136  0.15478567  0.07585283  1
  Li  Li3  1  0.65684864  0.84521433  0.92414717  1
  Li  Li4  1  0.73837100  0.00478256  0.47429936  1
  Li  Li5  1  0.89395309  0.50046456  0.18743332  1
  Cu  Cu6  1  0.00245572  0.05152484  0.19610533  1
  Cu  Cu7  1  0.24250120  0.46564953  0.40189994  1
  Cu  Cu8  1  0.41632756  0.74266078  0.19775931  1
  Cu  Cu9  1  0.58367244  0.25733922  0.80224069  1
  Cu  Cu10  1  0.75749880  0.53435047  0.59810006  1
  Cu  Cu11  1  0.99754428  0.94847516  0.80389467  1
  F  F12  1  0.00711072  0.78521217  0.21648941  1
  F  F13  1  0.12932224  0.94425126  0.66360958  1
  F  F14  1  0.02911646  0.34204169  0.20006194  1
  F  F15  1  0.17966319  0.52865002  0.59376837  1
  F  F16  1  0.28078327  0.73434650  0.37761250  1
  F  F17  1  0.18458633  0.18071931  0.39067071  1
  F  F18  1  0.13666194  0.04897289  0.02513118  1
  F  F19  1  0.26080239  0.65121637  0.00445517  1
  F  F20  1  0.34785916  0.42902467  0.23312610  1
  F  F21  1  0.44877924  0.27685871  0.93447038  1
  F  F22  1  0.56596538  0.97488380  0.78175760  1
  F  F23  1  0.44043784  0.19739517  0.59853651  1
  F  F24  1  0.55956216  0.80260483  0.40146349  1
  F  F25  1  0.43403462  0.02511620  0.21824240  1
  F  F26  1  0.55122076  0.72314129  0.06552962  1
  F  F27  1  0.65214084  0.57097533  0.76687390  1
  F  F28  1  0.73919761  0.34878363  0.99554483  1
  F  F29  1  0.86333806  0.95102711  0.97486882  1
  F  F30  1  0.81541367  0.81928069  0.60932929  1
  F  F31  1  0.71921673  0.26565350  0.62238750  1
  F  F32  1  0.82033681  0.47134998  0.40623163  1
  F  F33  1  0.97088354  0.65795831  0.79993806  1
  F  F34  1  0.87067776  0.05574874  0.33639042  1
  F  F35  1  0.99288928  0.21478783  0.78351059  1
