# generated using pymatgen
data_SrLu2O4
_symmetry_space_group_name_H-M   'P 1'
_cell_length_a   10.01134634
_cell_length_b   11.78099859
_cell_length_c   3.34598846
_cell_angle_alpha   90.00000000
_cell_angle_beta   90.00000000
_cell_angle_gamma   90.00000000
_symmetry_Int_Tables_number   1
_chemical_formula_structural   SrLu2O4
_chemical_formula_sum   'Sr4 Lu8 O16'
_cell_volume   394.63811564
_cell_formula_units_Z   4
loop_
 _symmetry_equiv_pos_site_id
 _symmetry_equiv_pos_as_xyz
  1  'x, y, z'
loop_
 _atom_site_type_symbol
 _atom_site_label
 _atom_site_symmetry_multiplicity
 _atom_site_fract_x
 _atom_site_fract_y
 _atom_site_fract_z
 _atom_site_occupancy
  Sr  Sr0  1  0.24584112  0.35028029  0.75000000  1
  Sr  Sr1  1  0.25415888  0.85028029  0.25000000  1
  Sr  Sr2  1  0.74584112  0.14971971  0.75000000  1
  Sr  Sr3  1  0.75415888  0.64971971  0.25000000  1
  Lu  Lu4  1  0.07304160  0.11230108  0.75000000  1
  Lu  Lu5  1  0.07884715  0.60920847  0.75000000  1
  Lu  Lu6  1  0.42115285  0.10920847  0.25000000  1
  Lu  Lu7  1  0.42695840  0.61230108  0.25000000  1
  Lu  Lu8  1  0.57304160  0.38769892  0.75000000  1
  Lu  Lu9  1  0.57884715  0.89079153  0.75000000  1
  Lu  Lu10  1  0.92115285  0.39079153  0.25000000  1
  Lu  Lu11  1  0.92695840  0.88769892  0.25000000  1
  O  O12  1  0.01929537  0.71701842  0.25000000  1
  O  O13  1  0.07480031  0.92461321  0.75000000  1
  O  O14  1  0.12132847  0.48034052  0.25000000  1
  O  O15  1  0.20924192  0.16963421  0.25000000  1
  O  O16  1  0.29075808  0.66963421  0.75000000  1
  O  O17  1  0.37867153  0.98034052  0.75000000  1
  O  O18  1  0.42519969  0.42461321  0.25000000  1
  O  O19  1  0.48070463  0.21701842  0.75000000  1
  O  O20  1  0.51929537  0.78298158  0.25000000  1
  O  O21  1  0.57480031  0.57538679  0.75000000  1
  O  O22  1  0.62132847  0.01965948  0.25000000  1
  O  O23  1  0.70924192  0.33036579  0.25000000  1
  O  O24  1  0.79075808  0.83036579  0.75000000  1
  O  O25  1  0.87867153  0.51965948  0.75000000  1
  O  O26  1  0.92519969  0.07538679  0.25000000  1
  O  O27  1  0.98070463  0.28298158  0.75000000  1
