# generated using pymatgen
data_LiSbO3
_symmetry_space_group_name_H-M   'P 1'
_cell_length_a   6.76274023
_cell_length_b   5.30757726
_cell_length_c   9.95285004
_cell_angle_alpha   86.70535972
_cell_angle_beta   42.64124201
_cell_angle_gamma   51.19136922
_symmetry_Int_Tables_number   1
_chemical_formula_structural   LiSbO3
_chemical_formula_sum   'Li2 Sb2 O6'
_cell_volume   121.56135708
_cell_formula_units_Z   2
loop_
 _symmetry_equiv_pos_site_id
 _symmetry_equiv_pos_as_xyz
  1  'x, y, z'
loop_
 _atom_site_type_symbol
 _atom_site_label
 _atom_site_symmetry_multiplicity
 _atom_site_fract_x
 _atom_site_fract_y
 _atom_site_fract_z
 _atom_site_occupancy
  Li  Li0  1  0.04518726  0.45403729  0.15321469  1
  Li  Li1  1  0.95216149  0.54595175  0.84812113  1
  Sb  Sb2  1  0.33739742  0.50003438  0.33138125  1
  Sb  Sb3  1  0.66099476  0.49994370  0.66942966  1
  O  O4  1  0.20119380  0.29800359  0.28237264  1
  O  O5  1  0.79714936  0.70205292  0.71842745  1
  O  O6  1  0.67231132  0.18318274  0.55569674  1
  O  O7  1  0.03937528  0.81645882  0.08842796  1
  O  O8  1  0.32640166  0.81666746  0.44473261  1
  O  O9  1  0.95904865  0.18327935  0.91216987  1
