# generated using pymatgen
data_LiCrSnO4
_symmetry_space_group_name_H-M   'P 1'
_cell_length_a   6.29766507
_cell_length_b   6.15168089
_cell_length_c   6.15168046
_cell_angle_alpha   58.89775319
_cell_angle_beta   59.21184063
_cell_angle_gamma   59.21184298
_symmetry_Int_Tables_number   1
_chemical_formula_structural   LiCrSnO4
_chemical_formula_sum   'Li2 Cr2 Sn2 O8'
_cell_volume   165.08687141
_cell_formula_units_Z   2
loop_
 _symmetry_equiv_pos_site_id
 _symmetry_equiv_pos_as_xyz
  1  'x, y, z'
loop_
 _atom_site_type_symbol
 _atom_site_label
 _atom_site_symmetry_multiplicity
 _atom_site_fract_x
 _atom_site_fract_y
 _atom_site_fract_z
 _atom_site_occupancy
  Li  Li0  1  0.12395164  0.12604836  0.12604836  1
  Li  Li1  1  0.87604836  0.87395164  0.87395164  1
  Cr  Cr2  1  0.50000000  0.00000000  0.50000000  1
  Cr  Cr3  1  0.50000000  0.50000000  0.00000000  1
  Sn  Sn4  1  0.00000000  0.50000000  0.50000000  1
  Sn  Sn5  1  0.50000000  0.50000000  0.50000000  1
  O  O6  1  0.27151114  0.26041141  0.26041141  1
  O  O7  1  0.26325566  0.25354971  0.71993998  1
  O  O8  1  0.26325566  0.71993998  0.25354971  1
  O  O9  1  0.70766605  0.26041141  0.26041141  1
  O  O10  1  0.29233395  0.73958859  0.73958859  1
  O  O11  1  0.73674434  0.74645029  0.28006002  1
  O  O12  1  0.73674434  0.28006002  0.74645029  1
  O  O13  1  0.72848886  0.73958859  0.73958859  1
