# generated using pymatgen
data_Li2Fe3SbO8
_symmetry_space_group_name_H-M   'P 1'
_cell_length_a   6.00675772
_cell_length_b   6.00597830
_cell_length_c   9.77889754
_cell_angle_alpha   89.99635886
_cell_angle_beta   89.99152909
_cell_angle_gamma   119.99579307
_symmetry_Int_Tables_number   1
_chemical_formula_structural   Li2Fe3SbO8
_chemical_formula_sum   'Li4 Fe6 Sb2 O16'
_cell_volume   305.53628965
_cell_formula_units_Z   2
loop_
 _symmetry_equiv_pos_site_id
 _symmetry_equiv_pos_as_xyz
  1  'x, y, z'
loop_
 _atom_site_type_symbol
 _atom_site_label
 _atom_site_symmetry_multiplicity
 _atom_site_fract_x
 _atom_site_fract_y
 _atom_site_fract_z
 _atom_site_occupancy
  Li  Li0  1  0.33334424  0.66669592  0.90284356  1
  Li  Li1  1  0.00011873  0.00008086  0.98860216  1
  Li  Li2  1  0.00006918  0.00004951  0.48861099  1
  Li  Li3  1  0.66671270  0.33338074  0.40287055  1
  Fe  Fe4  1  0.17032068  0.82976062  0.21324452  1
  Fe  Fe5  1  0.17032572  0.34055961  0.21327221  1
  Fe  Fe6  1  0.65935666  0.82969037  0.21321083  1
  Fe  Fe7  1  0.34051705  0.17029042  0.71326306  1
  Fe  Fe8  1  0.82970910  0.65939719  0.71322315  1
  Fe  Fe9  1  0.82972320  0.17032649  0.71324544  1
  Sb  Sb10  1  0.33346333  0.66676807  0.48624120  1
  Sb  Sb11  1  0.66676422  0.33341790  0.98626783  1
  O  O12  1  0.16781854  0.83229473  0.59528234  1
  O  O13  1  0.03679356  0.51838613  0.34707660  1
  O  O14  1  0.33341130  0.66673058  0.10699860  1
  O  O15  1  0.99991331  0.99993884  0.30240201  1
  O  O16  1  0.99997447  0.99998884  0.80238628  1
  O  O17  1  0.16780667  0.33552962  0.59528204  1
  O  O18  1  0.48150448  0.96320250  0.34709834  1
  O  O19  1  0.48148130  0.51829592  0.34709044  1
  O  O20  1  0.33551365  0.16778858  0.09529879  1
  O  O21  1  0.66437628  0.83220108  0.59524092  1
  O  O22  1  0.51832761  0.48156642  0.84707337  1
  O  O23  1  0.51834419  0.03679084  0.84707402  1
  O  O24  1  0.66668164  0.33335276  0.60699672  1
  O  O25  1  0.83222910  0.66438981  0.09525687  1
  O  O26  1  0.96312280  0.48156423  0.84712209  1
  O  O27  1  0.83227431  0.16786243  0.09526707  1
