# generated using pymatgen
data_Mn2(SO4)3
_symmetry_space_group_name_H-M   'P 1'
_cell_length_a   8.55821261
_cell_length_b   11.77596409
_cell_length_c   8.59726990
_cell_angle_alpha   90.00000000
_cell_angle_beta   90.00000000
_cell_angle_gamma   92.04765148
_symmetry_Int_Tables_number   1
_chemical_formula_structural   Mn2(SO4)3
_chemical_formula_sum   'Mn8 S12 O48'
_cell_volume   865.88995326
_cell_formula_units_Z   4
loop_
 _symmetry_equiv_pos_site_id
 _symmetry_equiv_pos_as_xyz
  1  'x, y, z'
loop_
 _atom_site_type_symbol
 _atom_site_label
 _atom_site_symmetry_multiplicity
 _atom_site_fract_x
 _atom_site_fract_y
 _atom_site_fract_z
 _atom_site_occupancy
  Mn  Mn0  1  0.25352321  0.88764513  0.03024313  1
  Mn  Mn1  1  0.24647679  0.61235487  0.53024313  1
  Mn  Mn2  1  0.25102748  0.38440129  0.96823639  1
  Mn  Mn3  1  0.24897252  0.11559871  0.46823639  1
  Mn  Mn4  1  0.75102748  0.88440129  0.53176361  1
  Mn  Mn5  1  0.74897252  0.61559871  0.03176361  1
  Mn  Mn6  1  0.75352321  0.38764513  0.46975687  1
  Mn  Mn7  1  0.74647679  0.11235487  0.96975687  1
  S  S8  1  0.04729736  0.49143368  0.24566064  1
  S  S9  1  0.11242569  0.85029336  0.37731497  1
  S  S10  1  0.11886334  0.14473098  0.11723892  1
  S  S11  1  0.38757431  0.64970664  0.87731497  1
  S  S12  1  0.38113666  0.35526902  0.61723892  1
  S  S13  1  0.45270264  0.00856632  0.74566064  1
  S  S14  1  0.54729736  0.99143368  0.25433936  1
  S  S15  1  0.61886334  0.64473098  0.38276108  1
  S  S16  1  0.61242569  0.35029336  0.12268503  1
  S  S17  1  0.88113666  0.85526902  0.88276108  1
  S  S18  1  0.88757431  0.14970664  0.62268503  1
  S  S19  1  0.95270264  0.50856632  0.75433936  1
  O  O20  1  0.04335907  0.44679972  0.86778830  1
  O  O21  1  0.04365147  0.89923494  0.88223648  1
  O  O22  1  0.04425454  0.60072342  0.67754974  1
  O  O23  1  0.04719140  0.18711923  0.58249615  1
  O  O24  1  0.10615053  0.58038904  0.35868352  1
  O  O25  1  0.12537767  0.83345612  0.20342406  1
  O  O26  1  0.13404740  0.97365009  0.41132353  1
  O  O27  1  0.12758409  0.24367513  0.00826465  1
  O  O28  1  0.16807067  0.18747523  0.27469882  1
  O  O29  1  0.19033135  0.44317453  0.17427672  1
  O  O30  1  0.23133157  0.78614756  0.46195721  1
  O  O31  1  0.26866843  0.71385244  0.96195721  1
  O  O32  1  0.23026756  0.05934395  0.06410033  1
  O  O33  1  0.26973244  0.44065605  0.56410033  1
  O  O34  1  0.30966865  0.05682547  0.67427672  1
  O  O35  1  0.33192933  0.31252477  0.77469882  1
  O  O36  1  0.36595260  0.52634991  0.91132353  1
  O  O37  1  0.37241591  0.25632487  0.50826465  1
  O  O38  1  0.37462233  0.66654388  0.70342406  1
  O  O39  1  0.39384947  0.91961096  0.85868352  1
  O  O40  1  0.45574546  0.89927658  0.17754974  1
  O  O41  1  0.45634853  0.60076506  0.38223648  1
  O  O42  1  0.45280860  0.31288077  0.08249615  1
  O  O43  1  0.45664093  0.05320028  0.36778830  1
  O  O44  1  0.54335907  0.94679972  0.63221170  1
  O  O45  1  0.54719140  0.68711923  0.91750385  1
  O  O46  1  0.54365147  0.39923494  0.61776352  1
  O  O47  1  0.54425454  0.10072342  0.82245026  1
  O  O48  1  0.60615053  0.08038904  0.14131648  1
  O  O49  1  0.62537767  0.33345612  0.29657594  1
  O  O50  1  0.62758409  0.74367513  0.49173535  1
  O  O51  1  0.63404740  0.47365009  0.08867647  1
  O  O52  1  0.66807067  0.68747523  0.22530118  1
  O  O53  1  0.69033135  0.94317453  0.32572328  1
  O  O54  1  0.73026756  0.55934395  0.43589967  1
  O  O55  1  0.76973244  0.94065605  0.93589967  1
  O  O56  1  0.73133157  0.28614756  0.03804279  1
  O  O57  1  0.76866843  0.21385244  0.53804279  1
  O  O58  1  0.80966865  0.55682547  0.82572328  1
  O  O59  1  0.83192933  0.81252477  0.72530118  1
  O  O60  1  0.87241591  0.75632487  0.99173535  1
  O  O61  1  0.86595260  0.02634991  0.58867647  1
  O  O62  1  0.87462233  0.16654388  0.79657594  1
  O  O63  1  0.89384947  0.41961096  0.64131648  1
  O  O64  1  0.95280860  0.81288077  0.41750385  1
  O  O65  1  0.95574546  0.39927658  0.32245026  1
  O  O66  1  0.95634853  0.10076506  0.11776352  1
  O  O67  1  0.95664093  0.55320028  0.13221170  1
