# generated using pymatgen
data_Tm2TeO6
_symmetry_space_group_name_H-M   'P 1'
_cell_length_a   9.10529787
_cell_length_b   9.10483043
_cell_length_c   5.11277007
_cell_angle_alpha   90.00055897
_cell_angle_beta   89.99987053
_cell_angle_gamma   120.00168301
_symmetry_Int_Tables_number   1
_chemical_formula_structural   Tm2TeO6
_chemical_formula_sum   'Tm6 Te3 O18'
_cell_volume   367.06717368
_cell_formula_units_Z   3
loop_
 _symmetry_equiv_pos_site_id
 _symmetry_equiv_pos_as_xyz
  1  'x, y, z'
loop_
 _atom_site_type_symbol
 _atom_site_label
 _atom_site_symmetry_multiplicity
 _atom_site_fract_x
 _atom_site_fract_y
 _atom_site_fract_z
 _atom_site_occupancy
  Tm  Tm0  1  0.00000356  0.62428065  -0.00000678  1
  Tm  Tm1  1  0.00002471  0.28731997  0.50002923  1
  Tm  Tm2  1  0.37572344  0.37571771  0.00000344  1
  Tm  Tm3  1  0.28726677  0.00000040  0.49999587  1
  Tm  Tm4  1  0.71270387  0.71268047  0.49997460  1
  Tm  Tm5  1  0.62423057  0.99999836  0.99999806  1
  Te  Te6  1  0.33326756  0.66666874  0.50551919  1
  Te  Te7  1  0.00018497  0.00000001  0.00000145  1
  Te  Te8  1  0.66660051  0.33333089  0.49448028  1
  O  O9  1  0.08299938  0.88018185  0.78736396  1
  O  O10  1  0.22198735  0.75978989  0.28916320  1
  O  O11  1  0.13105212  0.54243893  0.72219752  1
  O  O12  1  0.41140032  0.86895944  0.72222128  1
  O  O13  1  0.24019224  0.46218610  0.28916440  1
  O  O14  1  0.11979830  0.20283302  0.78731016  1
  O  O15  1  0.20281712  0.11981885  0.21263957  1
  O  O16  1  0.53783886  0.77803591  0.28913628  1
  O  O17  1  0.45757501  0.58862456  0.72221512  1
  O  O18  1  0.79710087  0.91695048  0.78728592  1
  O  O19  1  0.46220108  0.24021120  0.71083489  1
  O  O20  1  0.58861335  0.45755864  0.27780483  1
  O  O21  1  0.54244221  0.13104437  0.27777770  1
  O  O22  1  0.77800667  0.53781301  0.71083365  1
  O  O23  1  0.91696499  0.79716555  0.21269238  1
  O  O24  1  0.75980572  0.22196695  0.71086313  1
  O  O25  1  0.86895047  0.41137464  0.27778506  1
  O  O26  1  0.88014999  0.08304841  0.21271459  1
