# generated using pymatgen
data_Lu6WO12
_symmetry_space_group_name_H-M   'P 1'
_cell_length_a   6.33958928
_cell_length_b   6.33958932
_cell_length_c   6.33958963
_cell_angle_alpha   98.74951774
_cell_angle_beta   98.74951896
_cell_angle_gamma   98.74952077
_symmetry_Int_Tables_number   1
_chemical_formula_structural   Lu6WO12
_chemical_formula_sum   'Lu6 W1 O12'
_cell_volume   244.85673355
_cell_formula_units_Z   1
loop_
 _symmetry_equiv_pos_site_id
 _symmetry_equiv_pos_as_xyz
  1  'x, y, z'
loop_
 _atom_site_type_symbol
 _atom_site_label
 _atom_site_symmetry_multiplicity
 _atom_site_fract_x
 _atom_site_fract_y
 _atom_site_fract_z
 _atom_site_occupancy
  Lu  Lu0  1  0.14430073  0.31963457  0.61134008  1
  Lu  Lu1  1  0.38865992  0.85569927  0.68036543  1
  Lu  Lu2  1  0.31963457  0.61134008  0.14430073  1
  Lu  Lu3  1  0.68036543  0.38865992  0.85569927  1
  Lu  Lu4  1  0.61134008  0.14430073  0.31963457  1
  Lu  Lu5  1  0.85569927  0.68036543  0.38865992  1
  W  W6  1  0.00000000  0.00000000  0.00000000  1
  O  O7  1  0.03520839  0.92062601  0.69802654  1
  O  O8  1  0.07937399  0.30197346  0.96479161  1
  O  O9  1  0.17726116  0.59041857  0.42876819  1
  O  O10  1  0.30197346  0.96479161  0.07937399  1
  O  O11  1  0.40958143  0.57123181  0.82273884  1
  O  O12  1  0.42876819  0.17726116  0.59041857  1
  O  O13  1  0.57123181  0.82273884  0.40958143  1
  O  O14  1  0.59041857  0.42876819  0.17726116  1
  O  O15  1  0.69802654  0.03520839  0.92062601  1
  O  O16  1  0.82273884  0.40958143  0.57123181  1
  O  O17  1  0.92062601  0.69802654  0.03520839  1
  O  O18  1  0.96479161  0.07937399  0.30197346  1
