# generated using pymatgen
data_Na3CoAsCO7
_symmetry_space_group_name_H-M   'P 1'
_cell_length_a   9.19279626
_cell_length_b   6.82159819
_cell_length_c   5.25370943
_cell_angle_alpha   90.00000000
_cell_angle_beta   88.99336469
_cell_angle_gamma   90.00000000
_symmetry_Int_Tables_number   1
_chemical_formula_structural   Na3CoAsCO7
_chemical_formula_sum   'Na6 Co2 As2 C2 O14'
_cell_volume   329.40697289
_cell_formula_units_Z   2
loop_
 _symmetry_equiv_pos_site_id
 _symmetry_equiv_pos_as_xyz
  1  'x, y, z'
loop_
 _atom_site_type_symbol
 _atom_site_label
 _atom_site_symmetry_multiplicity
 _atom_site_fract_x
 _atom_site_fract_y
 _atom_site_fract_z
 _atom_site_occupancy
  Na  Na0  1  0.07994470  0.25000000  0.76130093  1
  Na  Na1  1  0.25660782  0.00301619  0.24949583  1
  Na  Na2  1  0.25660782  0.49698381  0.24949583  1
  Na  Na3  1  0.74339218  0.50301619  0.75050417  1
  Na  Na4  1  0.74339218  0.99698381  0.75050417  1
  Na  Na5  1  0.92005530  0.75000000  0.23869907  1
  Co  Co6  1  0.34320879  0.75000000  0.78891666  1
  Co  Co7  1  0.65679121  0.25000000  0.21108334  1
  As  As8  1  0.41721995  0.25000000  0.70117606  1
  As  As9  1  0.58278005  0.75000000  0.29882394  1
  C  C10  1  0.06102393  0.75000000  0.73065964  1
  C  C11  1  0.93897607  0.25000000  0.26934036  1
  O  O12  1  0.07961976  0.25000000  0.28606432  1
  O  O13  1  0.12188415  0.75000000  0.95304816  1
  O  O14  1  0.14403868  0.75000000  0.52784184  1
  O  O15  1  0.30834639  0.05147827  0.78223700  1
  O  O16  1  0.30834639  0.44852173  0.78223700  1
  O  O17  1  0.44230450  0.25000000  0.37415080  1
  O  O18  1  0.41652548  0.75000000  0.15631101  1
  O  O19  1  0.58347452  0.25000000  0.84368899  1
  O  O20  1  0.55769550  0.75000000  0.62584920  1
  O  O21  1  0.69165361  0.55147827  0.21776300  1
  O  O22  1  0.69165361  0.94852173  0.21776300  1
  O  O23  1  0.85596132  0.25000000  0.47215816  1
  O  O24  1  0.87811585  0.25000000  0.04695184  1
  O  O25  1  0.92038024  0.75000000  0.71393568  1
