# generated using pymatgen
data_Sm2TeO6
_symmetry_space_group_name_H-M   'P 1'
_cell_length_a   5.41962019
_cell_length_b   9.31175634
_cell_length_c   10.19957306
_cell_angle_alpha   90.00000000
_cell_angle_beta   90.00000000
_cell_angle_gamma   90.00000000
_symmetry_Int_Tables_number   1
_chemical_formula_structural   Sm2TeO6
_chemical_formula_sum   'Sm8 Te4 O24'
_cell_volume   514.73351715
_cell_formula_units_Z   4
loop_
 _symmetry_equiv_pos_site_id
 _symmetry_equiv_pos_as_xyz
  1  'x, y, z'
loop_
 _atom_site_type_symbol
 _atom_site_label
 _atom_site_symmetry_multiplicity
 _atom_site_fract_x
 _atom_site_fract_y
 _atom_site_fract_z
 _atom_site_occupancy
  Sm  Sm0  1  0.02463328  0.39632250  0.04172696  1
  Sm  Sm1  1  0.03362033  0.28270708  0.63755712  1
  Sm  Sm2  1  0.46637967  0.71729292  0.13755712  1
  Sm  Sm3  1  0.47536672  0.60367750  0.54172696  1
  Sm  Sm4  1  0.52463328  0.10367750  0.95827304  1
  Sm  Sm5  1  0.53362033  0.21729292  0.36244288  1
  Sm  Sm6  1  0.96637967  0.78270708  0.86244288  1
  Sm  Sm7  1  0.97536672  0.89632250  0.45827304  1
  Te  Te8  1  0.04087200  0.00501890  0.14345906  1
  Te  Te9  1  0.45912800  0.99498110  0.64345906  1
  Te  Te10  1  0.54087200  0.49498110  0.85654094  1
  Te  Te11  1  0.95912800  0.50501890  0.35654094  1
  O  O12  1  0.07564985  0.65171523  0.47725282  1
  O  O13  1  0.16878330  0.55270732  0.21058811  1
  O  O14  1  0.18281373  0.86233579  0.25810396  1
  O  O15  1  0.18889398  0.85952972  0.67580319  1
  O  O16  1  0.22437876  0.38703553  0.43551167  1
  O  O17  1  0.24846163  0.91402418  0.00673551  1
  O  O18  1  0.25153837  0.08597582  0.50673551  1
  O  O19  1  0.27562124  0.61296447  0.93551167  1
  O  O20  1  0.31110602  0.14047028  0.17580319  1
  O  O21  1  0.31718627  0.13766421  0.75810396  1
  O  O22  1  0.33121670  0.44729268  0.71058811  1
  O  O23  1  0.42435015  0.34828477  0.97725282  1
  O  O24  1  0.57564985  0.84828477  0.52274718  1
  O  O25  1  0.66878330  0.94729268  0.78941189  1
  O  O26  1  0.68281373  0.63766421  0.74189604  1
  O  O27  1  0.68889398  0.64047028  0.32419681  1
  O  O28  1  0.72437876  0.11296447  0.56448833  1
  O  O29  1  0.74846163  0.58597582  0.99326449  1
  O  O30  1  0.75153837  0.41402418  0.49326449  1
  O  O31  1  0.77562124  0.88703553  0.06448833  1
  O  O32  1  0.81110602  0.35952972  0.82419681  1
  O  O33  1  0.81718627  0.36233579  0.24189604  1
  O  O34  1  0.83121670  0.05270732  0.28941189  1
  O  O35  1  0.92435015  0.15171523  0.02274718  1
