# generated using pymatgen
data_K2CrPCO7
_symmetry_space_group_name_H-M   'P 1'
_cell_length_a   9.66339351
_cell_length_b   6.69013223
_cell_length_c   5.56938162
_cell_angle_alpha   90.00000000
_cell_angle_beta   90.36386853
_cell_angle_gamma   90.00000000
_symmetry_Int_Tables_number   1
_chemical_formula_structural   K2CrPCO7
_chemical_formula_sum   'K4 Cr2 P2 C2 O14'
_cell_volume   360.04981017
_cell_formula_units_Z   2
loop_
 _symmetry_equiv_pos_site_id
 _symmetry_equiv_pos_as_xyz
  1  'x, y, z'
loop_
 _atom_site_type_symbol
 _atom_site_label
 _atom_site_symmetry_multiplicity
 _atom_site_fract_x
 _atom_site_fract_y
 _atom_site_fract_z
 _atom_site_occupancy
  K  K0  1  0.24574496  0.47631159  0.24390967  1
  K  K1  1  0.24574496  0.02368841  0.24390967  1
  K  K2  1  0.75425504  0.52368841  0.75609033  1
  K  K3  1  0.75425504  0.97631159  0.75609033  1
  Cr  Cr4  1  0.35491514  0.75000000  0.76924307  1
  Cr  Cr5  1  0.64508486  0.25000000  0.23075693  1
  P  P6  1  0.43174601  0.25000000  0.72011960  1
  P  P7  1  0.56825399  0.75000000  0.27988040  1
  C  C8  1  0.10006530  0.75000000  0.72850866  1
  C  C9  1  0.89993470  0.25000000  0.27149134  1
  O  O10  1  0.02796234  0.25000000  0.29318620  1
  O  O11  1  0.16736335  0.75000000  0.93563665  1
  O  O12  1  0.18729927  0.75000000  0.54532091  1
  O  O13  1  0.34104291  0.06131510  0.76224345  1
  O  O14  1  0.34104291  0.43868490  0.76224345  1
  O  O15  1  0.44185128  0.75000000  0.10618860  1
  O  O16  1  0.48073483  0.25000000  0.45289785  1
  O  O17  1  0.51926517  0.75000000  0.54710215  1
  O  O18  1  0.55814872  0.25000000  0.89381140  1
  O  O19  1  0.65895709  0.56131510  0.23775655  1
  O  O20  1  0.65895709  0.93868490  0.23775655  1
  O  O21  1  0.81270073  0.25000000  0.45467909  1
  O  O22  1  0.83263665  0.25000000  0.06436335  1
  O  O23  1  0.97203866  0.75000000  0.70681380  1
