# generated using pymatgen
data_KTa2PO8
_symmetry_space_group_name_H-M   'P 1'
_cell_length_a   8.46414544
_cell_length_b   8.46414568
_cell_length_c   8.46414537
_cell_angle_alpha   104.05720576
_cell_angle_beta   104.05720348
_cell_angle_gamma   104.05720299
_symmetry_Int_Tables_number   1
_chemical_formula_structural   KTa2PO8
_chemical_formula_sum   'K3 Ta6 P3 O24'
_cell_volume   540.45094413
_cell_formula_units_Z   3
loop_
 _symmetry_equiv_pos_site_id
 _symmetry_equiv_pos_as_xyz
  1  'x, y, z'
loop_
 _atom_site_type_symbol
 _atom_site_label
 _atom_site_symmetry_multiplicity
 _atom_site_fract_x
 _atom_site_fract_y
 _atom_site_fract_z
 _atom_site_occupancy
  K  K0  1  0.30095344  0.60142455  0.91153759  1
  K  K1  1  0.60142455  0.91153759  0.30095344  1
  K  K2  1  0.91153759  0.30095344  0.60142455  1
  Ta  Ta3  1  0.03435811  0.35147259  0.16118382  1
  Ta  Ta4  1  0.16118382  0.03435811  0.35147259  1
  Ta  Ta5  1  0.64977309  0.96711037  0.83976180  1
  Ta  Ta6  1  0.35147259  0.16118382  0.03435811  1
  Ta  Ta7  1  0.83976180  0.64977309  0.96711037  1
  Ta  Ta8  1  0.96711037  0.83976180  0.64977309  1
  P  P9  1  0.27600536  0.72325879  0.50007604  1
  P  P10  1  0.50007604  0.27600536  0.72325879  1
  P  P11  1  0.72325879  0.50007604  0.27600536  1
  O  O12  1  0.02468771  0.97404997  0.49943409  1
  O  O13  1  0.99983755  0.84668683  0.15350094  1
  O  O14  1  0.13099063  0.70692214  0.58334119  1
  O  O15  1  0.06358701  0.20757818  0.31565452  1
  O  O16  1  0.15350094  0.99983755  0.84668683  1
  O  O17  1  0.29298866  0.86903653  0.41777460  1
  O  O18  1  0.23414271  0.55263967  0.35656457  1
  O  O19  1  0.44652912  0.76456217  0.64352285  1
  O  O20  1  0.20757818  0.31565452  0.06358701  1
  O  O21  1  0.41777460  0.29298866  0.86903653  1
  O  O22  1  0.35656457  0.23414271  0.55263967  1
  O  O23  1  0.31565452  0.06358701  0.20757818  1
  O  O24  1  0.49943409  0.02468771  0.97404997  1
  O  O25  1  0.68300494  0.79197326  0.93645459  1
  O  O26  1  0.64352285  0.44652912  0.76456217  1
  O  O27  1  0.58334119  0.13099063  0.70692214  1
  O  O28  1  0.79197326  0.93645459  0.68300494  1
  O  O29  1  0.55263967  0.35656457  0.23414271  1
  O  O30  1  0.76456217  0.64352285  0.44652912  1
  O  O31  1  0.70692214  0.58334119  0.13099063  1
  O  O32  1  0.93645459  0.68300494  0.79197326  1
  O  O33  1  0.86903653  0.41777460  0.29298866  1
  O  O34  1  0.84668683  0.15350094  0.99983755  1
  O  O35  1  0.97404997  0.49943409  0.02468771  1
