# generated using pymatgen
data_Hf2N2O
_symmetry_space_group_name_H-M   'P 1'
_cell_length_a   6.78214149
_cell_length_b   5.91886284
_cell_length_c   5.83132731
_cell_angle_alpha   89.73375457
_cell_angle_beta   90.00029666
_cell_angle_gamma   89.99949718
_symmetry_Int_Tables_number   1
_chemical_formula_structural   Hf2N2O
_chemical_formula_sum   'Hf8 N8 O4'
_cell_volume   234.08190982
_cell_formula_units_Z   4
loop_
 _symmetry_equiv_pos_site_id
 _symmetry_equiv_pos_as_xyz
  1  'x, y, z'
loop_
 _atom_site_type_symbol
 _atom_site_label
 _atom_site_symmetry_multiplicity
 _atom_site_fract_x
 _atom_site_fract_y
 _atom_site_fract_z
 _atom_site_occupancy
  Hf  Hf0  1  0.99359251  0.32777913  0.25429527  1
  Hf  Hf1  1  0.00777054  0.65736772  0.76978676  1
  Hf  Hf2  1  0.24220140  0.15735388  0.76976080  1
  Hf  Hf3  1  0.25636777  0.82778083  0.25425975  1
  Hf  Hf4  1  0.50776577  0.34263477  0.23021192  1
  Hf  Hf5  1  0.49360281  0.67221873  0.74570565  1
  Hf  Hf6  1  0.75637000  0.17221922  0.74573400  1
  Hf  Hf7  1  0.74220150  0.84264092  0.23023701  1
  N  N8  1  0.00153208  0.00874041  0.00368650  1
  N  N9  1  0.00763938  0.33738816  0.63176671  1
  N  N10  1  0.24841813  0.50873964  0.00369412  1
  N  N11  1  0.24233212  0.83736865  0.63174400  1
  N  N12  1  0.50152754  0.99126015  0.99631242  1
  N  N13  1  0.50763154  0.66261251  0.36823318  1
  N  N14  1  0.74231900  0.16263058  0.36825578  1
  N  N15  1  0.74841364  0.49126553  0.99631156  1
  O  O16  1  0.99207562  0.66940970  0.34680821  1
  O  O17  1  0.25787843  0.16941043  0.34683678  1
  O  O18  1  0.49207696  0.33059294  0.65319352  1
  O  O19  1  0.75788528  0.83058711  0.65316507  1
