# generated using pymatgen
data_Li2Fe3SnO8
_symmetry_space_group_name_H-M   'P 1'
_cell_length_a   5.98031022
_cell_length_b   5.99769184
_cell_length_c   9.84830303
_cell_angle_alpha   89.89176251
_cell_angle_beta   90.05428022
_cell_angle_gamma   120.09619223
_symmetry_Int_Tables_number   1
_chemical_formula_structural   Li2Fe3SnO8
_chemical_formula_sum   'Li4 Fe6 Sn2 O16'
_cell_volume   305.61688465
_cell_formula_units_Z   2
loop_
 _symmetry_equiv_pos_site_id
 _symmetry_equiv_pos_as_xyz
  1  'x, y, z'
loop_
 _atom_site_type_symbol
 _atom_site_label
 _atom_site_symmetry_multiplicity
 _atom_site_fract_x
 _atom_site_fract_y
 _atom_site_fract_z
 _atom_site_occupancy
  Li  Li0  1  0.33625478  0.66312679  0.89762880  1
  Li  Li1  1  0.00118672  0.00575486  0.99340423  1
  Li  Li2  1  0.99881328  0.00456914  0.49340423  1
  Li  Li3  1  0.66374522  0.32687201  0.39762880  1
  Fe  Fe4  1  0.16969530  0.83138284  0.21337302  1
  Fe  Fe5  1  0.16997388  0.33953771  0.21446086  1
  Fe  Fe6  1  0.66132820  0.82889816  0.21471835  1
  Fe  Fe7  1  0.33867180  0.16756995  0.71471835  1
  Fe  Fe8  1  0.83030470  0.66168755  0.71337302  1
  Fe  Fe9  1  0.83002612  0.16956483  0.71446086  1
  Sn  Sn10  1  0.33071779  0.66576238  0.48955998  1
  Sn  Sn11  1  0.66928221  0.33504458  0.98955998  1
  O  O12  1  0.15904551  0.83904908  0.59840748  1
  O  O13  1  0.03137485  0.51582307  0.33863846  1
  O  O14  1  0.33496155  0.66627650  0.10711605  1
  O  O15  1  0.00007894  0.00078940  0.30771224  1
  O  O16  1  -0.00007894  0.00071146  0.80771224  1
  O  O17  1  0.16152365  0.32327742  0.60083149  1
  O  O18  1  0.48186589  0.96472560  0.33884831  1
  O  O19  1  0.48341319  0.51557328  0.33946792  1
  O  O20  1  0.32496176  0.16336391  0.09975182  1
  O  O21  1  0.67503824  0.83840215  0.59975182  1
  O  O22  1  0.51813411  0.48285971  0.83884831  1
  O  O23  1  0.51658681  0.03216008  0.83946792  1
  O  O24  1  0.66503845  0.33131496  0.60711605  1
  O  O25  1  0.84095449  0.68000357  0.09840748  1
  O  O26  1  0.96862515  0.48444722  0.83863846  1
  O  O27  1  0.83847635  0.16175477  0.10083149  1
