# generated using pymatgen
data_Er(ReO4)3
_symmetry_space_group_name_H-M   'P 1'
_cell_length_a   8.94962531
_cell_length_b   8.94961115
_cell_length_c   10.17996769
_cell_angle_alpha   63.91944171
_cell_angle_beta   116.08019953
_cell_angle_gamma   119.99807032
_symmetry_Int_Tables_number   1
_chemical_formula_structural   Er(ReO4)3
_chemical_formula_sum   'Er2 Re6 O24'
_cell_volume   608.39044833
_cell_formula_units_Z   2
loop_
 _symmetry_equiv_pos_site_id
 _symmetry_equiv_pos_as_xyz
  1  'x, y, z'
loop_
 _atom_site_type_symbol
 _atom_site_label
 _atom_site_symmetry_multiplicity
 _atom_site_fract_x
 _atom_site_fract_y
 _atom_site_fract_z
 _atom_site_occupancy
  Er  Er0  1  0.93979194  0.06018926  0.81941323  1
  Er  Er1  1  0.43981577  0.56020570  0.31942540  1
  Re  Re2  1  0.80384137  0.45921259  0.50416331  1
  Re  Re3  1  0.54073284  0.84043233  0.50419030  1
  Re  Re4  1  0.15957294  0.19618455  0.50420986  1
  Re  Re5  1  0.65956677  0.95926497  0.00419419  1
  Re  Re6  1  0.30382113  0.34043297  0.00421374  1
  Re  Re7  1  0.04079672  0.69615573  0.00416662  1
  O  O8  1  0.91434418  0.48723436  0.97290654  1
  O  O9  1  0.54596600  0.08572515  0.97301767  1
  O  O10  1  0.51279021  0.45413390  0.97300597  1
  O  O11  1  0.60547491  0.91314566  0.83479440  1
  O  O12  1  0.80700246  0.25560077  0.65142082  1
  O  O13  1  0.01276841  0.58565982  0.47290860  1
  O  O14  1  0.74431460  0.89992358  0.65149786  1
  O  O15  1  0.72905079  0.58776980  0.53425420  1
  O  O16  1  0.14254437  0.39459832  0.83475743  1
  O  O17  1  0.08690852  0.85755528  0.83477854  1
  O  O18  1  0.41223527  0.60695413  0.53431005  1
  O  O19  1  0.39298829  0.27089888  0.53431264  1
  O  O20  1  0.64244324  0.41309621  0.33477786  1
  O  O21  1  0.41426746  0.95403313  0.47301475  1
  O  O22  1  0.58685451  0.89452538  0.33479380  1
  O  O23  1  0.09994908  0.19298109  0.65142318  1
  O  O24  1  0.91223128  0.77094637  0.03425501  1
  O  O25  1  0.89305039  0.08776142  0.03431672  1
  O  O26  1  0.04586561  0.98720560  0.47300711  1
  O  O27  1  0.60007709  0.75568359  0.15149718  1
  O  O28  1  0.10540117  0.35745281  0.33475939  1
  O  O29  1  0.30701710  0.40004754  0.15142186  1
  O  O30  1  0.24440008  0.69299981  0.15142118  1
  O  O31  1  0.22909553  0.10700930  0.03431159  1
