# generated using pymatgen
data_Na2MnAsCO7
_symmetry_space_group_name_H-M   'P 1'
_cell_length_a   9.14074724
_cell_length_b   6.79488260
_cell_length_c   5.39254881
_cell_angle_alpha   90.00000000
_cell_angle_beta   87.81460177
_cell_angle_gamma   90.00000000
_symmetry_Int_Tables_number   1
_chemical_formula_structural   Na2MnAsCO7
_chemical_formula_sum   'Na4 Mn2 As2 C2 O14'
_cell_volume   334.68924016
_cell_formula_units_Z   2
loop_
 _symmetry_equiv_pos_site_id
 _symmetry_equiv_pos_as_xyz
  1  'x, y, z'
loop_
 _atom_site_type_symbol
 _atom_site_label
 _atom_site_symmetry_multiplicity
 _atom_site_fract_x
 _atom_site_fract_y
 _atom_site_fract_z
 _atom_site_occupancy
  Na  Na0  1  0.22569289  0.50004873  0.23097022  1
  Na  Na1  1  0.22569289  0.99995127  0.23097022  1
  Na  Na2  1  0.77430711  0.49995127  0.76902978  1
  Na  Na3  1  0.77430711  0.00004873  0.76902978  1
  Mn  Mn4  1  0.34989565  0.75000000  0.77834811  1
  Mn  Mn5  1  0.65010435  0.25000000  0.22165189  1
  As  As6  1  0.42682588  0.25000000  0.70741985  1
  As  As7  1  0.57317412  0.75000000  0.29258015  1
  C  C8  1  0.07434553  0.75000000  0.71959363  1
  C  C9  1  0.92565447  0.25000000  0.28040637  1
  O  O10  1  0.06301865  0.25000000  0.27350695  1
  O  O11  1  0.14760616  0.75000000  0.92945503  1
  O  O12  1  0.15868180  0.75000000  0.52064073  1
  O  O13  1  0.32374051  0.04869563  0.79129316  1
  O  O14  1  0.32374051  0.45130437  0.79129316  1
  O  O15  1  0.40578618  0.75000000  0.16252035  1
  O  O16  1  0.45369018  0.25000000  0.38330062  1
  O  O17  1  0.54630982  0.75000000  0.61669938  1
  O  O18  1  0.59421382  0.25000000  0.83747965  1
  O  O19  1  0.67625949  0.54869563  0.20870684  1
  O  O20  1  0.67625949  0.95130437  0.20870684  1
  O  O21  1  0.84131820  0.25000000  0.47935927  1
  O  O22  1  0.85239384  0.25000000  0.07054497  1
  O  O23  1  0.93698135  0.75000000  0.72649305  1
