# generated using pymatgen
data_Na6Ni2C4SO16
_symmetry_space_group_name_H-M   'P 1'
_cell_length_a   9.82723324
_cell_length_b   9.82723335
_cell_length_c   9.82723333
_cell_angle_alpha   120.00000229
_cell_angle_beta   90.00000000
_cell_angle_gamma   60.00000037
_symmetry_Int_Tables_number   1
_chemical_formula_structural   Na6Ni2C4SO16
_chemical_formula_sum   'Na12 Ni4 C8 S2 O32'
_cell_volume   671.08694365
_cell_formula_units_Z   2
loop_
 _symmetry_equiv_pos_site_id
 _symmetry_equiv_pos_as_xyz
  1  'x, y, z'
loop_
 _atom_site_type_symbol
 _atom_site_label
 _atom_site_symmetry_multiplicity
 _atom_site_fract_x
 _atom_site_fract_y
 _atom_site_fract_z
 _atom_site_occupancy
  Na  Na0  1  0.09164485  0.31671129  0.65835515  1
  Na  Na1  1  0.09164485  0.75000000  0.09164485  1
  Na  Na2  1  0.09164485  0.75000000  0.65835515  1
  Na  Na3  1  0.34164485  0.25000000  0.34164485  1
  Na  Na4  1  0.34164485  0.25000000  0.90835515  1
  Na  Na5  1  0.34164485  0.81671129  0.90835515  1
  Na  Na6  1  0.65835515  0.18328871  0.09164485  1
  Na  Na7  1  0.65835515  0.75000000  0.09164485  1
  Na  Na8  1  0.65835515  0.75000000  0.65835515  1
  Na  Na9  1  0.90835515  0.25000000  0.34164485  1
  Na  Na10  1  0.90835515  0.25000000  0.90835515  1
  Na  Na11  1  0.90835515  0.68328871  0.34164485  1
  Ni  Ni12  1  0.00000000  0.00000000  0.50000000  1
  Ni  Ni13  1  0.50000000  0.00000000  0.50000000  1
  Ni  Ni14  1  0.50000000  0.50000000  0.00000000  1
  Ni  Ni15  1  0.50000000  0.50000000  0.50000000  1
  C  C16  1  0.34619067  0.43587322  0.71793611  1
  C  C17  1  0.28206389  0.56412678  0.28206389  1
  C  C18  1  0.71793611  0.06412678  0.34619067  1
  C  C19  1  0.71793611  0.06412678  0.71793611  1
  C  C20  1  0.28206389  0.93587322  0.28206389  1
  C  C21  1  0.28206389  0.93587322  0.65380933  1
  C  C22  1  0.71793611  0.43587322  0.71793611  1
  C  C23  1  0.65380933  0.56412678  0.28206389  1
  S  S24  1  0.12500000  0.25000000  0.12500000  1
  S  S25  1  0.87500000  0.75000000  0.87500000  1
  O  O26  1  0.06282312  0.12564523  0.06282312  1
  O  O27  1  0.13913426  0.05644463  0.40003380  1
  O  O28  1  0.06282312  0.37435477  0.06282312  1
  O  O29  1  0.06282312  0.37435477  0.31153165  1
  O  O30  1  0.30442012  0.05644463  0.65641182  1
  O  O31  1  0.31153165  0.12564523  0.06282312  1
  O  O32  1  0.13913426  0.70445392  0.30442012  1
  O  O33  1  0.34358818  0.29554608  0.59996620  1
  O  O34  1  0.30442012  0.53916806  0.40003380  1
  O  O35  1  0.34358818  0.46083194  0.86086574  1
  O  O36  1  0.13913426  0.96083194  0.65641182  1
  O  O37  1  0.59996620  0.03916806  0.69557988  1
  O  O38  1  0.34358818  0.55644463  0.69557988  1
  O  O39  1  0.40003380  0.44355537  0.13913426  1
  O  O40  1  0.30442012  0.79554608  0.13913426  1
  O  O41  1  0.59996620  0.20445392  0.34358818  1
  O  O42  1  0.40003380  0.79554608  0.65641182  1
  O  O43  1  0.69557988  0.20445392  0.86086574  1
  O  O44  1  0.59996620  0.55644463  0.86086574  1
  O  O45  1  0.65641182  0.44355537  0.30442012  1
  O  O46  1  0.40003380  0.96083194  0.30442012  1
  O  O47  1  0.86086574  0.03916806  0.34358818  1
  O  O48  1  0.65641182  0.53916806  0.13913426  1
  O  O49  1  0.69557988  0.46083194  0.59996620  1
  O  O50  1  0.65641182  0.70445392  0.40003380  1
  O  O51  1  0.86086574  0.29554608  0.69557988  1
  O  O52  1  0.68846835  0.87435477  0.93717688  1
  O  O53  1  0.69557988  0.94355537  0.34358818  1
  O  O54  1  0.93717688  0.62564523  0.68846835  1
  O  O55  1  0.93717688  0.62564523  0.93717688  1
  O  O56  1  0.86086574  0.94355537  0.59996620  1
  O  O57  1  0.93717688  0.87435477  0.93717688  1
