# generated using pymatgen
data_K5H(CN2)2
_symmetry_space_group_name_H-M   'P 1'
_cell_length_a   9.13228421
_cell_length_b   9.13228421
_cell_length_c   11.10360252
_cell_angle_alpha   90.00000000
_cell_angle_beta   90.00000000
_cell_angle_gamma   90.00000000
_symmetry_Int_Tables_number   1
_chemical_formula_structural   K5H(CN2)2
_chemical_formula_sum   'K20 H4 C8 N16'
_cell_volume   926.02507048
_cell_formula_units_Z   4
loop_
 _symmetry_equiv_pos_site_id
 _symmetry_equiv_pos_as_xyz
  1  'x, y, z'
loop_
 _atom_site_type_symbol
 _atom_site_label
 _atom_site_symmetry_multiplicity
 _atom_site_fract_x
 _atom_site_fract_y
 _atom_site_fract_z
 _atom_site_occupancy
  K  K0  1  0.04471393  0.64606632  0.10152182  1
  K  K1  1  0.04471393  0.85393368  0.60152182  1
  K  K2  1  0.14606632  0.54471393  0.39847818  1
  K  K3  1  0.14606632  0.95528607  0.89847818  1
  K  K4  1  0.25000000  0.25000000  0.15234423  1
  K  K5  1  0.25000000  0.25000000  0.65234423  1
  K  K6  1  0.35393368  0.54471393  0.89847818  1
  K  K7  1  0.35393368  0.95528607  0.39847818  1
  K  K8  1  0.45528607  0.64606632  0.60152182  1
  K  K9  1  0.45528607  0.85393368  0.10152182  1
  K  K10  1  0.54471393  0.14606632  0.89847818  1
  K  K11  1  0.54471393  0.35393368  0.39847818  1
  K  K12  1  0.64606632  0.04471393  0.60152182  1
  K  K13  1  0.64606632  0.45528607  0.10152182  1
  K  K14  1  0.75000000  0.75000000  0.34765577  1
  K  K15  1  0.75000000  0.75000000  0.84765577  1
  K  K16  1  0.85393368  0.04471393  0.10152182  1
  K  K17  1  0.85393368  0.45528607  0.60152182  1
  K  K18  1  0.95528607  0.35393368  0.89847818  1
  K  K19  1  0.95528607  0.14606632  0.39847818  1
  H  H20  1  0.25000000  0.25000000  0.39958243  1
  H  H21  1  0.25000000  0.25000000  0.89958243  1
  H  H22  1  0.75000000  0.75000000  0.10041757  1
  H  H23  1  0.75000000  0.75000000  0.60041757  1
  C  C24  1  0.10293122  0.60293122  0.75000000  1
  C  C25  1  0.10293122  0.89706878  0.25000000  1
  C  C26  1  0.39706878  0.60293122  0.25000000  1
  C  C27  1  0.39706878  0.89706878  0.75000000  1
  C  C28  1  0.60293122  0.10293122  0.25000000  1
  C  C29  1  0.60293122  0.39706878  0.75000000  1
  C  C30  1  0.89706878  0.10293122  0.75000000  1
  C  C31  1  0.89706878  0.39706878  0.25000000  1
  N  N32  1  0.05567014  0.84913243  0.34752939  1
  N  N33  1  0.05567014  0.65086757  0.84752939  1
  N  N34  1  0.15086757  0.94432986  0.15247061  1
  N  N35  1  0.15086757  0.55567014  0.65247061  1
  N  N36  1  0.34913243  0.55567014  0.15247061  1
  N  N37  1  0.34913243  0.94432986  0.65247061  1
  N  N38  1  0.44432986  0.65086757  0.34752939  1
  N  N39  1  0.44432986  0.84913243  0.84752939  1
  N  N40  1  0.55567014  0.15086757  0.15247061  1
  N  N41  1  0.55567014  0.34913243  0.65247061  1
  N  N42  1  0.65086757  0.05567014  0.34752939  1
  N  N43  1  0.65086757  0.44432986  0.84752939  1
  N  N44  1  0.84913243  0.44432986  0.34752939  1
  N  N45  1  0.84913243  0.05567014  0.84752939  1
  N  N46  1  0.94432986  0.15086757  0.65247061  1
  N  N47  1  0.94432986  0.34913243  0.15247061  1
