# generated using pymatgen
data_Li4VCr3O8
_symmetry_space_group_name_H-M   'P 1'
_cell_length_a   5.16194127
_cell_length_b   5.93028377
_cell_length_c   5.14133688
_cell_angle_alpha   89.99107965
_cell_angle_beta   70.48544602
_cell_angle_gamma   90.00197768
_symmetry_Int_Tables_number   1
_chemical_formula_structural   Li4VCr3O8
_chemical_formula_sum   'Li4 V1 Cr3 O8'
_cell_volume   148.34470852
_cell_formula_units_Z   1
loop_
 _symmetry_equiv_pos_site_id
 _symmetry_equiv_pos_as_xyz
  1  'x, y, z'
loop_
 _atom_site_type_symbol
 _atom_site_label
 _atom_site_symmetry_multiplicity
 _atom_site_fract_x
 _atom_site_fract_y
 _atom_site_fract_z
 _atom_site_occupancy
  Li  Li0  1  0.00000000  0.00000000  0.00000000  1
  Li  Li1  1  0.00000000  0.50000000  0.00000000  1
  Li  Li2  1  0.00014381  0.25232037  0.50023626  1
  Li  Li3  1  0.99985519  0.74767963  0.49976374  1
  V  V4  1  0.50000000  0.00000000  0.50000000  1
  Cr  Cr5  1  0.49996406  0.24904226  0.99988733  1
  Cr  Cr6  1  0.50003594  0.75095774  0.00011267  1
  Cr  Cr7  1  0.50000100  0.50000000  0.49999900  1
  O  O8  1  0.26939130  0.99997955  0.23849971  1
  O  O9  1  0.27693775  0.49996262  0.24235063  1
  O  O10  1  0.72764747  0.25176822  0.25648867  1
  O  O11  1  0.27193119  0.25213270  0.74399820  1
  O  O12  1  0.72806881  0.74786730  0.25600180  1
  O  O13  1  0.73060770  0.00002145  0.76150029  1
  O  O14  1  0.27235253  0.74823178  0.74351233  1
  O  O15  1  0.72306225  0.50003638  0.75764937  1
