# generated using pymatgen
data_LiNbCoO4
_symmetry_space_group_name_H-M   'P 1'
_cell_length_a   6.17115944
_cell_length_b   6.17114981
_cell_length_c   8.49939746
_cell_angle_alpha   89.99986383
_cell_angle_beta   90.00052415
_cell_angle_gamma   90.00286184
_symmetry_Int_Tables_number   1
_chemical_formula_structural   LiNbCoO4
_chemical_formula_sum   'Li4 Nb4 Co4 O16'
_cell_volume   323.68382312
_cell_formula_units_Z   4
loop_
 _symmetry_equiv_pos_site_id
 _symmetry_equiv_pos_as_xyz
  1  'x, y, z'
loop_
 _atom_site_type_symbol
 _atom_site_label
 _atom_site_symmetry_multiplicity
 _atom_site_fract_x
 _atom_site_fract_y
 _atom_site_fract_z
 _atom_site_occupancy
  Li  Li0  1  0.99998452  0.22123967  0.00001662  1
  Li  Li1  1  0.99997701  0.77876769  0.49997936  1
  Li  Li2  1  0.22123428  0.00000908  0.25000916  1
  Li  Li3  1  0.77876214  0.00000235  0.74999397  1
  Nb  Nb4  1  0.21368368  0.49999800  0.25001250  1
  Nb  Nb5  1  0.50000761  0.21369005  0.00001245  1
  Nb  Nb6  1  0.49999190  0.78632606  0.49999718  1
  Nb  Nb7  1  0.78632241  0.49998353  0.74997924  1
  Co  Co8  1  0.25864097  0.25863765  0.62499266  1
  Co  Co9  1  0.25864694  0.74135273  0.87499864  1
  Co  Co10  1  0.74134573  0.25865818  0.37499944  1
  Co  Co11  1  0.74136406  0.74136413  0.12500903  1
  O  O12  1  0.01622531  0.26346901  0.25438266  1
  O  O13  1  0.01625260  0.73654835  0.24567871  1
  O  O14  1  0.26343399  0.01625510  0.99566572  1
  O  O15  1  0.26345925  0.98376258  0.50433428  1
  O  O16  1  0.26536463  0.48221051  0.01578014  1
  O  O17  1  0.26537743  0.51774098  0.48423456  1
  O  O18  1  0.48226756  0.26536188  0.23424035  1
  O  O19  1  0.48224306  0.73462635  0.26577315  1
  O  O20  1  0.51775143  0.26535114  0.76576598  1
  O  O21  1  0.51778497  0.73463493  0.73421907  1
  O  O22  1  0.73463726  0.51772842  0.51576019  1
  O  O23  1  0.73465341  0.48223265  0.98422846  1
  O  O24  1  0.73655910  0.01625939  0.00435061  1
  O  O25  1  0.73652416  0.98377670  0.49562302  1
  O  O26  1  0.98375806  0.26344865  0.74563620  1
  O  O27  1  0.98374652  0.73656424  0.75432664  1
