# generated using pymatgen
data_LiMnSiO4
_symmetry_space_group_name_H-M   'P 1'
_cell_length_a   5.88643470
_cell_length_b   5.88643470
_cell_length_c   5.88643470
_cell_angle_alpha   55.10634566
_cell_angle_beta   95.19398943
_cell_angle_gamma   121.22988376
_symmetry_Int_Tables_number   1
_chemical_formula_structural   LiMnSiO4
_chemical_formula_sum   'Li2 Mn2 Si2 O8'
_cell_volume   136.73971523
_cell_formula_units_Z   2
loop_
 _symmetry_equiv_pos_site_id
 _symmetry_equiv_pos_as_xyz
  1  'x, y, z'
loop_
 _atom_site_type_symbol
 _atom_site_label
 _atom_site_symmetry_multiplicity
 _atom_site_fract_x
 _atom_site_fract_y
 _atom_site_fract_z
 _atom_site_occupancy
  Li  Li0  1  0.99287735  0.00000000  0.00712265  1
  Li  Li1  1  0.25712265  0.50000000  0.24287735  1
  Mn  Mn2  1  0.62500000  0.25000000  0.62500000  1
  Mn  Mn3  1  0.12500000  0.75000000  0.62500000  1
  Si  Si4  1  0.62500000  0.25000000  0.12500000  1
  Si  Si5  1  0.62500000  0.75000000  0.62500000  1
  O  O6  1  0.83657792  0.20854722  0.37196930  1
  O  O7  1  0.83735362  0.73632519  0.42632119  1
  O  O8  1  0.41264638  0.23632519  0.35102842  1
  O  O9  1  0.83735362  0.26367481  0.89897158  1
  O  O10  1  0.41342208  0.29145278  0.87803070  1
  O  O11  1  0.83051653  0.70854722  0.87803070  1
  O  O12  1  0.41948347  0.79145278  0.37196930  1
  O  O13  1  0.41264638  0.76367481  0.82367881  1
