# generated using pymatgen
data_TmCrO3
_symmetry_space_group_name_H-M   'P 1'
_cell_length_a   5.24554733
_cell_length_b   5.56617853
_cell_length_c   7.59400789
_cell_angle_alpha   90.00000000
_cell_angle_beta   90.00000000
_cell_angle_gamma   90.00000000
_symmetry_Int_Tables_number   1
_chemical_formula_structural   TmCrO3
_chemical_formula_sum   'Tm4 Cr4 O12'
_cell_volume   221.72720669
_cell_formula_units_Z   4
loop_
 _symmetry_equiv_pos_site_id
 _symmetry_equiv_pos_as_xyz
  1  'x, y, z'
loop_
 _atom_site_type_symbol
 _atom_site_label
 _atom_site_symmetry_multiplicity
 _atom_site_fract_x
 _atom_site_fract_y
 _atom_site_fract_z
 _atom_site_occupancy
  Tm  Tm0  1  0.52070178  0.56964096  0.25000000  1
  Tm  Tm1  1  0.97929822  0.06964096  0.25000000  1
  Tm  Tm2  1  0.47929822  0.43035904  0.75000000  1
  Tm  Tm3  1  0.02070178  0.93035904  0.75000000  1
  Cr  Cr4  1  0.00000000  0.50000000  0.00000000  1
  Cr  Cr5  1  0.50000000  0.00000000  0.50000000  1
  Cr  Cr6  1  0.00000000  0.50000000  0.50000000  1
  Cr  Cr7  1  0.50000000  0.00000000  0.00000000  1
  O  O8  1  0.37893878  0.95222674  0.25000000  1
  O  O9  1  0.12106122  0.45222674  0.25000000  1
  O  O10  1  0.62106122  0.04777326  0.75000000  1
  O  O11  1  0.87893878  0.54777326  0.75000000  1
  O  O12  1  0.81034715  0.80525892  0.06147870  1
  O  O13  1  0.68965285  0.30525892  0.43852130  1
  O  O14  1  0.18965285  0.19474108  0.56147870  1
  O  O15  1  0.31034715  0.69474108  0.93852130  1
  O  O16  1  0.18965285  0.19474108  0.93852130  1
  O  O17  1  0.31034715  0.69474108  0.56147870  1
  O  O18  1  0.81034715  0.80525892  0.43852130  1
  O  O19  1  0.68965285  0.30525892  0.06147870  1
