# generated using pymatgen
data_MnPO4
_symmetry_space_group_name_H-M   'P 1'
_cell_length_a   6.64802770
_cell_length_b   8.61418848
_cell_length_c   4.81662119
_cell_angle_alpha   90.00000000
_cell_angle_beta   90.00000000
_cell_angle_gamma   90.00073081
_symmetry_Int_Tables_number   1
_chemical_formula_structural   MnPO4
_chemical_formula_sum   'Mn4 P4 O16'
_cell_volume   275.83519726
_cell_formula_units_Z   4
loop_
 _symmetry_equiv_pos_site_id
 _symmetry_equiv_pos_as_xyz
  1  'x, y, z'
loop_
 _atom_site_type_symbol
 _atom_site_label
 _atom_site_symmetry_multiplicity
 _atom_site_fract_x
 _atom_site_fract_y
 _atom_site_fract_z
 _atom_site_occupancy
  Mn  Mn0  1  0.00000000  0.50000000  0.50000000  1
  Mn  Mn1  1  0.00000000  0.00000000  0.00000000  1
  Mn  Mn2  1  0.50000000  0.50000000  0.50000000  1
  Mn  Mn3  1  0.50000000  0.00000000  0.00000000  1
  P  P4  1  0.24999837  0.82209784  0.53876256  1
  P  P5  1  0.24999837  0.32209784  0.96123744  1
  P  P6  1  0.75000163  0.67790216  0.03876256  1
  P  P7  1  0.75000163  0.17790216  0.46123744  1
  O  O8  1  0.05644528  0.87553400  0.68564936  1
  O  O9  1  0.05644528  0.37553400  0.81435064  1
  O  O10  1  0.24999981  0.87626213  0.23536852  1
  O  O11  1  0.24999779  0.63766817  0.56840942  1
  O  O12  1  0.24999981  0.37626213  0.26463148  1
  O  O13  1  0.24999779  0.13766817  0.93159058  1
  O  O14  1  0.44355372  0.87553567  0.68564856  1
  O  O15  1  0.44355372  0.37553567  0.81435144  1
  O  O16  1  0.55644628  0.62446433  0.18564856  1
  O  O17  1  0.55644628  0.12446433  0.31435144  1
  O  O18  1  0.75000221  0.86233183  0.06840942  1
  O  O19  1  0.75000019  0.62373787  0.73536852  1
  O  O20  1  0.75000221  0.36233183  0.43159058  1
  O  O21  1  0.75000019  0.12373787  0.76463148  1
  O  O22  1  0.94355472  0.62446600  0.18564936  1
  O  O23  1  0.94355472  0.12446600  0.31435064  1
