# generated using pymatgen
data_FeP6(WO8)3
_symmetry_space_group_name_H-M   'P 1'
_cell_length_a   8.91247345
_cell_length_b   8.91247334
_cell_length_c   8.91247334
_cell_angle_alpha   58.96039803
_cell_angle_beta   58.96039101
_cell_angle_gamma   58.96039410
_symmetry_Int_Tables_number   1
_chemical_formula_structural   FeP6(WO8)3
_chemical_formula_sum   'Fe1 P6 W3 O24'
_cell_volume   488.71358636
_cell_formula_units_Z   1
loop_
 _symmetry_equiv_pos_site_id
 _symmetry_equiv_pos_as_xyz
  1  'x, y, z'
loop_
 _atom_site_type_symbol
 _atom_site_label
 _atom_site_symmetry_multiplicity
 _atom_site_fract_x
 _atom_site_fract_y
 _atom_site_fract_z
 _atom_site_occupancy
  Fe  Fe0  1  0.85827981  0.85827981  0.85827981  1
  P  P1  1  0.03492272  0.75102783  0.46797454  1
  P  P2  1  0.46797454  0.03492272  0.75102783  1
  P  P3  1  0.75102783  0.46797454  0.03492272  1
  P  P4  1  0.24546802  0.54092588  0.96304927  1
  P  P5  1  0.54092588  0.96304927  0.24546802  1
  P  P6  1  0.96304927  0.24546802  0.54092588  1
  W  W7  1  0.14229838  0.14229838  0.14229838  1
  W  W8  1  0.35722640  0.35722640  0.35722640  1
  W  W9  1  0.64214764  0.64214764  0.64214764  1
  O  O10  1  0.13181271  0.28557507  0.50388418  1
  O  O11  1  0.28557507  0.50388418  0.13181271  1
  O  O12  1  0.06270553  0.92042834  0.28559233  1
  O  O13  1  0.50388418  0.13181271  0.28557507  1
  O  O14  1  0.21266159  0.58067891  0.43256148  1
  O  O15  1  0.00944021  0.77661959  0.63459221  1
  O  O16  1  0.28559233  0.06270553  0.92042834  1
  O  O17  1  0.43256148  0.21266159  0.58067891  1
  O  O18  1  0.58067891  0.43256148  0.21266159  1
  O  O19  1  0.22168814  0.36512842  0.99231719  1
  O  O20  1  0.07914960  0.71400033  0.94083783  1
  O  O21  1  0.36512842  0.99231719  0.22168814  1
  O  O22  1  0.63459221  0.00944021  0.77661959  1
  O  O23  1  0.92042834  0.28559233  0.06270553  1
  O  O24  1  0.77661959  0.63459221  0.00944021  1
  O  O25  1  0.42304913  0.55910119  0.78836858  1
  O  O26  1  0.55910119  0.78836858  0.42304913  1
  O  O27  1  0.71400033  0.94083783  0.07914960  1
  O  O28  1  0.99231719  0.22168814  0.36512842  1
  O  O29  1  0.78836858  0.42304913  0.55910119  1
  O  O30  1  0.49000363  0.86668532  0.71979598  1
  O  O31  1  0.94083783  0.07914960  0.71400033  1
  O  O32  1  0.71979598  0.49000363  0.86668532  1
  O  O33  1  0.86668532  0.71979598  0.49000363  1
