# generated using pymatgen
data_Mn(NO3)4
_symmetry_space_group_name_H-M   'P 1'
_cell_length_a   7.68324130
_cell_length_b   11.87558094
_cell_length_c   12.79824545
_cell_angle_alpha   99.92595016
_cell_angle_beta   94.31987705
_cell_angle_gamma   106.08097101
_symmetry_Int_Tables_number   1
_chemical_formula_structural   Mn(NO3)4
_chemical_formula_sum   'Mn4 N16 O48'
_cell_volume   1095.87780490
_cell_formula_units_Z   4
loop_
 _symmetry_equiv_pos_site_id
 _symmetry_equiv_pos_as_xyz
  1  'x, y, z'
loop_
 _atom_site_type_symbol
 _atom_site_label
 _atom_site_symmetry_multiplicity
 _atom_site_fract_x
 _atom_site_fract_y
 _atom_site_fract_z
 _atom_site_occupancy
  Mn  Mn0  1  0.09709937  0.79886867  0.73022492  1
  Mn  Mn1  1  0.45730687  0.67525111  0.24425872  1
  Mn  Mn2  1  0.54269313  0.32474889  0.75574128  1
  Mn  Mn3  1  0.90290063  0.20113133  0.26977508  1
  N  N4  1  0.11466939  0.66445256  0.86936655  1
  N  N5  1  0.20570412  0.59763538  0.36824658  1
  N  N6  1  0.42843618  0.87398370  0.69891305  1
  N  N7  1  0.04792599  0.01608222  0.78237754  1
  N  N8  1  0.42596863  0.81947429  0.11468895  1
  N  N9  1  0.23393113  0.29809275  0.36739794  1
  N  N10  1  0.30734435  0.17801426  0.60311099  1
  N  N11  1  0.39750037  0.47154615  0.11651052  1
  N  N12  1  0.60249963  0.52845385  0.88348948  1
  N  N13  1  0.69265565  0.82198574  0.39688901  1
  N  N14  1  0.76606887  0.70190725  0.63260206  1
  N  N15  1  0.57403137  0.18052571  0.88531105  1
  N  N16  1  0.95207401  0.98391778  0.21762246  1
  N  N17  1  0.57156382  0.12601630  0.30108695  1
  N  N18  1  0.79429588  0.40236462  0.63175342  1
  N  N19  1  0.88533061  0.33554744  0.13063345  1
  O  O20  1  0.06391511  0.97085462  0.86208433  1
  O  O21  1  0.06916438  0.94966760  0.69015868  1
  O  O22  1  0.06667063  0.75696728  0.89963801  1
  O  O23  1  0.13398679  0.64605288  0.76552072  1
  O  O24  1  0.14358913  0.59654119  0.92443145  1
  O  O25  1  0.12034470  0.55619511  0.43575745  1
  O  O26  1  0.16130135  0.65945615  0.30717578  1
  O  O27  1  0.29017766  0.80602238  0.62803542  1
  O  O28  1  0.01653426  0.11027010  0.77934039  1
  O  O29  1  0.38273365  0.89631235  0.79290798  1
  O  O30  1  0.07537586  0.29197692  0.40306723  1
  O  O31  1  0.29937119  0.79311042  0.17124544  1
  O  O32  1  0.43503337  0.88028461  0.04735579  1
  O  O33  1  0.26782181  0.51881806  0.12173569  1
  O  O34  1  0.36668310  0.57759103  0.35425274  1
  O  O35  1  0.21886705  0.25795432  0.26754902  1
  O  O36  1  0.18472406  0.11941624  0.53332292  1
  O  O37  1  0.58015567  0.91089412  0.67488910  1
  O  O38  1  0.29097140  0.27144706  0.66929283  1
  O  O39  1  0.53893189  0.84107920  0.37832381  1
  O  O40  1  0.44969092  0.46072359  0.82349566  1
  O  O41  1  0.37514644  0.33844249  0.42846288  1
  O  O42  1  0.56043461  0.77192940  0.13572476  1
  O  O43  1  0.38930499  0.37479493  0.06354708  1
  O  O44  1  0.61069501  0.62520507  0.93645292  1
  O  O45  1  0.43956539  0.22807060  0.86427524  1
  O  O46  1  0.62485356  0.66155751  0.57153712  1
  O  O47  1  0.55030908  0.53927641  0.17650434  1
  O  O48  1  0.46106811  0.15892080  0.62167619  1
  O  O49  1  0.70902860  0.72855294  0.33070717  1
  O  O50  1  0.41984433  0.08910588  0.32511090  1
  O  O51  1  0.81527594  0.88058376  0.46667708  1
  O  O52  1  0.78113295  0.74204568  0.73245098  1
  O  O53  1  0.63331690  0.42240897  0.64574726  1
  O  O54  1  0.73217819  0.48118194  0.87826431  1
  O  O55  1  0.56496663  0.11971539  0.95264421  1
  O  O56  1  0.70062881  0.20688958  0.82875456  1
  O  O57  1  0.92462414  0.70802308  0.59693277  1
  O  O58  1  0.61726635  0.10368765  0.20709202  1
  O  O59  1  0.98346574  0.88972990  0.22065961  1
  O  O60  1  0.70982234  0.19397762  0.37196458  1
  O  O61  1  0.83869865  0.34054385  0.69282422  1
  O  O62  1  0.87965530  0.44380489  0.56424255  1
  O  O63  1  0.85641087  0.40345881  0.07556855  1
  O  O64  1  0.86601321  0.35394712  0.23447928  1
  O  O65  1  0.93332937  0.24303272  0.10036199  1
  O  O66  1  0.93083562  0.05033240  0.30984132  1
  O  O67  1  0.93608489  0.02914538  0.13791567  1
