# generated using pymatgen
data_MnV2O6
_symmetry_space_group_name_H-M   'P 1'
_cell_length_a   6.94416464
_cell_length_b   6.94416535
_cell_length_c   5.93628877
_cell_angle_alpha   74.40545958
_cell_angle_beta   105.59453223
_cell_angle_gamma   95.83110030
_symmetry_Int_Tables_number   1
_chemical_formula_structural   MnV2O6
_chemical_formula_sum   'Mn2 V4 O12'
_cell_volume   265.43627920
_cell_formula_units_Z   2
loop_
 _symmetry_equiv_pos_site_id
 _symmetry_equiv_pos_as_xyz
  1  'x, y, z'
loop_
 _atom_site_type_symbol
 _atom_site_label
 _atom_site_symmetry_multiplicity
 _atom_site_fract_x
 _atom_site_fract_y
 _atom_site_fract_z
 _atom_site_occupancy
  Mn  Mn0  1  0.08830427  0.08830427  0.75000000  1
  Mn  Mn1  1  0.91169573  0.91169573  0.25000000  1
  V  V2  1  0.20903799  0.61130685  0.76438475  1
  V  V3  1  0.38869315  0.79096201  0.26438475  1
  V  V4  1  0.61130685  0.20903799  0.73561525  1
  V  V5  1  0.79096201  0.38869315  0.23561525  1
  O  O6  1  0.03997300  0.80047028  0.64382849  1
  O  O7  1  0.09226397  0.38493774  0.79118602  1
  O  O8  1  0.19952972  0.96002700  0.14382849  1
  O  O9  1  0.36274979  0.64237070  0.55550052  1
  O  O10  1  0.38493774  0.09226397  0.70881398  1
  O  O11  1  0.35762930  0.63725021  0.05550052  1
  O  O12  1  0.64237070  0.36274979  0.94449948  1
  O  O13  1  0.61506226  0.90773603  0.29118602  1
  O  O14  1  0.63725021  0.35762930  0.44449948  1
  O  O15  1  0.80047028  0.03997300  0.85617151  1
  O  O16  1  0.90773603  0.61506226  0.20881398  1
  O  O17  1  0.96002700  0.19952972  0.35617151  1
