# generated using pymatgen
data_LiVSnO4
_symmetry_space_group_name_H-M   'P 1'
_cell_length_a   6.04975034
_cell_length_b   6.23142408
_cell_length_c   6.23142475
_cell_angle_alpha   60.50103612
_cell_angle_beta   60.95983362
_cell_angle_gamma   60.95983015
_symmetry_Int_Tables_number   1
_chemical_formula_structural   LiVSnO4
_chemical_formula_sum   'Li2 V2 Sn2 O8'
_cell_volume   169.12651008
_cell_formula_units_Z   2
loop_
 _symmetry_equiv_pos_site_id
 _symmetry_equiv_pos_as_xyz
  1  'x, y, z'
loop_
 _atom_site_type_symbol
 _atom_site_label
 _atom_site_symmetry_multiplicity
 _atom_site_fract_x
 _atom_site_fract_y
 _atom_site_fract_z
 _atom_site_occupancy
  Li  Li0  1  0.12725856  0.12274144  0.12274144  1
  Li  Li1  1  0.87274144  0.87725856  0.87725856  1
  V  V2  1  0.00000000  0.50000000  0.50000000  1
  V  V3  1  0.50000000  0.50000000  0.50000000  1
  Sn  Sn4  1  0.50000000  0.00000000  0.50000000  1
  Sn  Sn5  1  0.50000000  0.50000000  0.00000000  1
  O  O6  1  0.25674527  0.26039373  0.26039373  1
  O  O7  1  0.26405900  0.26675685  0.70512515  1
  O  O8  1  0.26405900  0.70512515  0.26675685  1
  O  O9  1  0.72246726  0.26039373  0.26039373  1
  O  O10  1  0.27753274  0.73960627  0.73960627  1
  O  O11  1  0.73594100  0.73324315  0.29487485  1
  O  O12  1  0.73594100  0.29487485  0.73324315  1
  O  O13  1  0.74325473  0.73960627  0.73960627  1
