# generated using pymatgen
data_Li4V3Cr3(SnO8)2
_symmetry_space_group_name_H-M   'P 1'
_cell_length_a   5.98976849
_cell_length_b   5.99823011
_cell_length_c   9.77152799
_cell_angle_alpha   90.13736080
_cell_angle_beta   90.19681764
_cell_angle_gamma   120.51247026
_symmetry_Int_Tables_number   1
_chemical_formula_structural   Li4V3Cr3(SnO8)2
_chemical_formula_sum   'Li4 V3 Cr3 Sn2 O16'
_cell_volume   302.44941969
_cell_formula_units_Z   1
loop_
 _symmetry_equiv_pos_site_id
 _symmetry_equiv_pos_as_xyz
  1  'x, y, z'
loop_
 _atom_site_type_symbol
 _atom_site_label
 _atom_site_symmetry_multiplicity
 _atom_site_fract_x
 _atom_site_fract_y
 _atom_site_fract_z
 _atom_site_occupancy
  Li  Li0  1  0.34000472  0.67251778  0.89536371  1
  Li  Li1  1  0.99668033  0.99787324  0.99320146  1
  Li  Li2  1  0.99618752  0.99472523  0.49446283  1
  Li  Li3  1  0.67211505  0.33689051  0.39417016  1
  V  V4  1  0.82742615  0.65364034  0.71859697  1
  V  V5  1  0.65637192  0.82804511  0.21822826  1
  V  V6  1  0.83103472  0.17157435  0.71274259  1
  Cr  Cr7  1  0.17005440  0.83078524  0.21414736  1
  Cr  Cr8  1  0.16993406  0.33914839  0.21375038  1
  Cr  Cr9  1  0.33770036  0.16682735  0.71371800  1
  Sn  Sn10  1  0.33024562  0.66311673  0.49185502  1
  Sn  Sn11  1  0.66257058  0.33067604  0.99318514  1
  O  O12  1  0.15767485  0.83507752  0.59912113  1
  O  O13  1  0.03725165  0.51769943  0.33604623  1
  O  O14  1  0.35283855  0.67698026  0.10868172  1
  O  O15  1  0.98730895  0.99319417  0.30738551  1
  O  O16  1  0.99374387  0.98374648  0.80693643  1
  O  O17  1  0.15603285  0.31650755  0.59880503  1
  O  O18  1  0.49047529  0.96692726  0.33827679  1
  O  O19  1  0.48954431  0.52195459  0.33733312  1
  O  O20  1  0.31634129  0.15877360  0.09908453  1
  O  O21  1  0.67622953  0.83540180  0.60026780  1
  O  O22  1  0.51878861  0.48542715  0.83724946  1
  O  O23  1  0.51919571  0.03695455  0.83852155  1
  O  O24  1  0.67154213  0.35372917  0.60570810  1
  O  O25  1  0.83590057  0.67933082  0.10026938  1
  O  O26  1  0.96936468  0.49500511  0.84142266  1
  O  O27  1  0.83744175  0.15777024  0.09930367  1
