# generated using pymatgen
data_Li2Si5Ni5O16
_symmetry_space_group_name_H-M   'P 1'
_cell_length_a   7.00786191
_cell_length_b   10.06297139
_cell_length_c   4.92555257
_cell_angle_alpha   90.03248304
_cell_angle_beta   90.04862783
_cell_angle_gamma   89.23726337
_symmetry_Int_Tables_number   1
_chemical_formula_structural   Li2Si5Ni5O16
_chemical_formula_sum   'Li2 Si5 Ni5 O16'
_cell_volume   347.31858693
_cell_formula_units_Z   1
loop_
 _symmetry_equiv_pos_site_id
 _symmetry_equiv_pos_as_xyz
  1  'x, y, z'
loop_
 _atom_site_type_symbol
 _atom_site_label
 _atom_site_symmetry_multiplicity
 _atom_site_fract_x
 _atom_site_fract_y
 _atom_site_fract_z
 _atom_site_occupancy
  Li  Li0  1  0.49656795  0.66183242  0.33983536  1
  Li  Li1  1  0.00253650  0.85664245  0.81721430  1
  Si  Si2  1  0.01202503  0.66376378  0.30357353  1
  Si  Si3  1  0.23399171  0.40749129  0.17992870  1
  Si  Si4  1  0.25896546  0.90148616  0.33291965  1
  Si  Si5  1  0.74140995  0.09093092  0.68504279  1
  Si  Si6  1  0.76749599  0.59318579  0.79749015  1
  Ni  Ni7  1  0.98749646  0.14428150  0.19166364  1
  Ni  Ni8  1  0.48352704  0.15256544  0.19550705  1
  Ni  Ni9  1  0.50212726  0.35582156  0.69678214  1
  Ni  Ni10  1  0.50395961  0.84831198  0.81714196  1
  Ni  Ni11  1  0.00049552  0.33843745  0.68996250  1
  O  O12  1  0.04722810  0.33047638  0.29341770  1
  O  O13  1  0.06716195  0.81528323  0.21261391  1
  O  O14  1  0.23674392  0.05612970  0.23032998  1
  O  O15  1  0.24587962  0.39397439  0.84964321  1
  O  O16  1  0.24885026  0.88287148  0.65825391  1
  O  O17  1  0.20429086  0.56833749  0.26506428  1
  O  O18  1  0.43383324  0.34813746  0.30348400  1
  O  O19  1  0.45148038  0.83533953  0.20864051  1
  O  O20  1  0.56506621  0.65957157  0.72355269  1
  O  O21  1  0.55005849  0.16856648  0.80533845  1
  O  O22  1  0.73571632  0.11780910  0.35423251  1
  O  O23  1  0.75825393  0.43469716  0.73500212  1
  O  O24  1  0.82777941  0.61854908  0.12104971  1
  O  O25  1  0.75090330  0.93585405  0.77131945  1
  O  O26  1  0.94731100  0.66015945  0.62401969  1
  O  O27  1  0.93884252  0.15949270  0.79697610  1
