# generated using pymatgen
data_LiCrPO4
_symmetry_space_group_name_H-M   'P 1'
_cell_length_a   8.08810220
_cell_length_b   5.19426200
_cell_length_c   8.87563800
_cell_angle_alpha   90.00000000
_cell_angle_beta   97.74117734
_cell_angle_gamma   90.00000000
_symmetry_Int_Tables_number   1
_chemical_formula_structural   LiCrPO4
_chemical_formula_sum   'Li4 Cr4 P4 O16'
_cell_volume   369.48264205
_cell_formula_units_Z   4
loop_
 _symmetry_equiv_pos_site_id
 _symmetry_equiv_pos_as_xyz
  1  'x, y, z'
loop_
 _atom_site_type_symbol
 _atom_site_label
 _atom_site_symmetry_multiplicity
 _atom_site_fract_x
 _atom_site_fract_y
 _atom_site_fract_z
 _atom_site_occupancy
  Li  Li0  1  0.98064387  0.12566613  0.12492283  1
  Li  Li1  1  0.56956073  0.43304818  0.69557091  1
  Li  Li2  1  0.43043927  0.93304818  0.30442909  1
  Li  Li3  1  0.01935613  0.62566613  0.87507717  1
  Cr  Cr4  1  0.17589427  0.97679803  0.59070805  1
  Cr  Cr5  1  0.37575505  0.52391668  0.06258649  1
  Cr  Cr6  1  0.62424495  0.02391668  0.93741351  1
  Cr  Cr7  1  0.82410573  0.47679803  0.40929195  1
  P  P8  1  0.20872620  0.43660397  0.38131741  1
  P  P9  1  0.26531255  0.07515684  0.93887727  1
  P  P10  1  0.73468745  0.57515684  0.06112273  1
  P  P11  1  0.79127380  0.93660397  0.61868259  1
  O  O12  1  0.03015087  0.36730150  0.30311386  1
  O  O13  1  0.19419309  0.60273661  0.52242990  1
  O  O14  1  0.22506065  0.78755064  0.94840639  1
  O  O15  1  0.12885646  0.25182048  0.98296309  1
  O  O16  1  0.30203303  0.17699698  0.43039431  1
  O  O17  1  0.30825519  0.58949263  0.27331272  1
  O  O18  1  0.31726841  0.14769046  0.78246503  1
  O  O19  1  0.42769470  0.11760787  0.06460363  1
  O  O20  1  0.57230530  0.61760787  0.93539637  1
  O  O21  1  0.68273159  0.64769046  0.21753497  1
  O  O22  1  0.69174481  0.08949263  0.72668728  1
  O  O23  1  0.69796697  0.67699698  0.56960569  1
  O  O24  1  0.87114354  0.75182048  0.01703691  1
  O  O25  1  0.77493935  0.28755064  0.05159361  1
  O  O26  1  0.80580691  0.10273661  0.47757010  1
  O  O27  1  0.96984913  0.86730150  0.69688614  1
