# generated using pymatgen
data_K2SbAu
_symmetry_space_group_name_H-M   'P 1'
_cell_length_a   6.63857240
_cell_length_b   6.63627549
_cell_length_c   6.63627549
_cell_angle_alpha   106.22830820
_cell_angle_beta   90.00000000
_cell_angle_gamma   90.00000000
_symmetry_Int_Tables_number   1
_chemical_formula_structural   K2SbAu
_chemical_formula_sum   'K4 Sb2 Au2'
_cell_volume   280.71471897
_cell_formula_units_Z   2
loop_
 _symmetry_equiv_pos_site_id
 _symmetry_equiv_pos_as_xyz
  1  'x, y, z'
loop_
 _atom_site_type_symbol
 _atom_site_label
 _atom_site_symmetry_multiplicity
 _atom_site_fract_x
 _atom_site_fract_y
 _atom_site_fract_z
 _atom_site_occupancy
  K  K0  1  0.74999900  0.50682640  0.16470557  1
  K  K1  1  0.25000000  0.83529443  0.49317360  1
  K  K2  1  0.74999900  0.16470557  0.50682640  1
  K  K3  1  0.25000000  0.49317360  0.83529443  1
  Sb  Sb4  1  0.25000000  0.26659809  0.26659809  1
  Sb  Sb5  1  0.74999900  0.73340091  0.73340091  1
  Au  Au6  1  0.00000000  0.00000000  0.00000000  1
  Au  Au7  1  0.49999900  0.00000000  0.00000000  1
