# generated using pymatgen
data_Li4Ti2Nb3Cr3O16
_symmetry_space_group_name_H-M   'P 1'
_cell_length_a   6.05400845
_cell_length_b   6.00607225
_cell_length_c   9.75156758
_cell_angle_alpha   90.00008618
_cell_angle_beta   89.64798833
_cell_angle_gamma   119.73820399
_symmetry_Int_Tables_number   1
_chemical_formula_structural   Li4Ti2Nb3Cr3O16
_chemical_formula_sum   'Li4 Ti2 Nb3 Cr3 O16'
_cell_volume   307.87003475
_cell_formula_units_Z   1
loop_
 _symmetry_equiv_pos_site_id
 _symmetry_equiv_pos_as_xyz
  1  'x, y, z'
loop_
 _atom_site_type_symbol
 _atom_site_label
 _atom_site_symmetry_multiplicity
 _atom_site_fract_x
 _atom_site_fract_y
 _atom_site_fract_z
 _atom_site_occupancy
  Li  Li0  1  0.33474365  0.66738627  0.90447182  1
  Li  Li1  1  0.01974277  0.00986944  0.99257707  1
  Li  Li2  1  0.01240479  0.00621691  0.49536636  1
  Li  Li3  1  0.66805057  0.33403141  0.38610098  1
  Ti  Ti4  1  0.32557728  0.66280381  0.48846620  1
  Ti  Ti5  1  0.65833849  0.32917499  0.99626504  1
  Nb  Nb6  1  0.66473471  0.83237248  0.21795526  1
  Nb  Nb7  1  0.82399331  0.63739471  0.71330786  1
  Nb  Nb8  1  0.82399402  0.18662126  0.71330700  1
  Cr  Cr9  1  0.17183902  0.83026856  0.21435449  1
  Cr  Cr10  1  0.17183703  0.34159940  0.21434677  1
  Cr  Cr11  1  0.33101742  0.16552114  0.71098444  1
  O  O12  1  0.16152814  0.82702454  0.59684716  1
  O  O13  1  0.04749024  0.52375827  0.34103748  1
  O  O14  1  0.33989265  0.66996074  0.10630439  1
  O  O15  1  0.00629603  0.00316412  0.31130874  1
  O  O16  1  0.00331585  0.00166755  0.80831515  1
  O  O17  1  0.16152890  0.33452534  0.59684842  1
  O  O18  1  0.48012948  0.95991756  0.34092244  1
  O  O19  1  0.48012960  0.52022717  0.34091678  1
  O  O20  1  0.33895376  0.16948853  0.09762331  1
  O  O21  1  0.66278895  0.83140701  0.59137223  1
  O  O22  1  0.52278162  0.48034825  0.84115105  1
  O  O23  1  0.52278241  0.04245710  0.84115028  1
  O  O24  1  0.63699877  0.31851145  0.58623928  1
  O  O25  1  0.83067548  0.66951589  0.09974525  1
  O  O26  1  0.96776516  0.48389064  0.86080782  1
  O  O27  1  0.83066988  0.16117247  0.09974494  1
