# generated using pymatgen
data_NaMgSO4F
_symmetry_space_group_name_H-M   'P 1'
_cell_length_a   5.49019215
_cell_length_b   5.49019215
_cell_length_c   7.18657824
_cell_angle_alpha   104.49231230
_cell_angle_beta   104.49231230
_cell_angle_gamma   103.83534395
_symmetry_Int_Tables_number   1
_chemical_formula_structural   NaMgSO4F
_chemical_formula_sum   'Na2 Mg2 S2 O8 F2'
_cell_volume   192.24452118
_cell_formula_units_Z   2
loop_
 _symmetry_equiv_pos_site_id
 _symmetry_equiv_pos_as_xyz
  1  'x, y, z'
loop_
 _atom_site_type_symbol
 _atom_site_label
 _atom_site_symmetry_multiplicity
 _atom_site_fract_x
 _atom_site_fract_y
 _atom_site_fract_z
 _atom_site_occupancy
  Na  Na0  1  0.33075086  0.66924914  0.25000000  1
  Na  Na1  1  0.66924914  0.33075086  0.75000000  1
  Mg  Mg2  1  -0.00000000  0.00000000  0.50000000  1
  Mg  Mg3  1  -0.00000000  0.00000000  0.00000000  1
  S  S4  1  0.67844329  0.32155671  0.25000000  1
  S  S5  1  0.32155671  0.67844329  0.75000000  1
  O  O6  1  0.68307908  0.12837335  0.36408579  1
  O  O7  1  0.87162665  0.31692092  0.13591421  1
  O  O8  1  0.31692092  0.87162665  0.63591421  1
  O  O9  1  0.12837335  0.68307908  0.86408579  1
  O  O10  1  0.74539815  0.59321254  0.39561536  1
  O  O11  1  0.40678746  0.25460185  0.10438464  1
  O  O12  1  0.25460185  0.40678746  0.60438464  1
  O  O13  1  0.59321254  0.74539815  0.89561536  1
  F  F14  1  0.07782522  0.92217478  0.25000000  1
  F  F15  1  0.92217478  0.07782522  0.75000000  1
