# generated using pymatgen
data_YbTmRh2
_symmetry_space_group_name_H-M   'P 1'
_cell_length_a   4.74468101
_cell_length_b   4.74468295
_cell_length_c   4.74468696
_cell_angle_alpha   60.00008677
_cell_angle_beta   60.00012216
_cell_angle_gamma   60.00003165
_symmetry_Int_Tables_number   1
_chemical_formula_structural   YbTmRh2
_chemical_formula_sum   'Yb1 Tm1 Rh2'
_cell_volume   75.52792831
_cell_formula_units_Z   1
loop_
 _symmetry_equiv_pos_site_id
 _symmetry_equiv_pos_as_xyz
  1  'x, y, z'
loop_
 _atom_site_type_symbol
 _atom_site_label
 _atom_site_symmetry_multiplicity
 _atom_site_fract_x
 _atom_site_fract_y
 _atom_site_fract_z
 _atom_site_occupancy
  Yb  Yb0  1  0.75000063  0.75000107  0.75000112  1
  Tm  Tm1  1  0.25000113  0.25000132  0.25000052  1
  Rh  Rh2  1  0.99999960  0.99999998  0.00000088  1
  Rh  Rh3  1  0.50000064  0.49999962  0.49999948  1
