# generated using pymatgen
data_Lu2ZnRu
_symmetry_space_group_name_H-M   'P 1'
_cell_length_a   4.81925514
_cell_length_b   4.81922618
_cell_length_c   4.81923131
_cell_angle_alpha   60.00027870
_cell_angle_beta   60.00128913
_cell_angle_gamma   60.00051497
_symmetry_Int_Tables_number   1
_chemical_formula_structural   Lu2ZnRu
_chemical_formula_sum   'Lu2 Zn1 Ru1'
_cell_volume   79.14561142
_cell_formula_units_Z   1
loop_
 _symmetry_equiv_pos_site_id
 _symmetry_equiv_pos_as_xyz
  1  'x, y, z'
loop_
 _atom_site_type_symbol
 _atom_site_label
 _atom_site_symmetry_multiplicity
 _atom_site_fract_x
 _atom_site_fract_y
 _atom_site_fract_z
 _atom_site_occupancy
  Lu  Lu0  1  0.00001049  0.99998889  0.00000454  1
  Lu  Lu1  1  0.49999481  0.50000086  0.49999448  1
  Zn  Zn2  1  0.74999594  0.75000518  0.74999835  1
  Ru  Ru3  1  0.24999775  0.25000407  0.25000163  1
