# generated using pymatgen
data_TiFe(PO4)2
_symmetry_space_group_name_H-M   'P 1'
_cell_length_a   8.52223964
_cell_length_b   8.70560500
_cell_length_c   8.70560449
_cell_angle_alpha   60.00000134
_cell_angle_beta   59.28566658
_cell_angle_gamma   59.28566468
_symmetry_Int_Tables_number   1
_chemical_formula_structural   TiFe(PO4)2
_chemical_formula_sum   'Ti3 Fe3 P6 O24'
_cell_volume   451.71251133
_cell_formula_units_Z   3
loop_
 _symmetry_equiv_pos_site_id
 _symmetry_equiv_pos_as_xyz
  1  'x, y, z'
loop_
 _atom_site_type_symbol
 _atom_site_label
 _atom_site_symmetry_multiplicity
 _atom_site_fract_x
 _atom_site_fract_y
 _atom_site_fract_z
 _atom_site_occupancy
  Ti  Ti0  1  0.07043654  0.64318815  0.64318815  1
  Ti  Ti1  1  0.42403995  0.85865368  0.85865368  1
  Ti  Ti2  1  0.93223579  0.35592140  0.35592140  1
  Fe  Fe3  1  0.99001613  0.00332796  0.00332796  1
  Fe  Fe4  1  0.57369300  0.14210267  0.14210267  1
  Fe  Fe5  1  0.49660056  0.50113315  0.50113315  1
  P  P6  1  0.25487849  0.24687047  0.54214406  1
  P  P7  1  0.25487849  0.95610698  0.24687047  1
  P  P8  1  0.25487849  0.54214406  0.95610698  1
  P  P9  1  0.74946390  0.45910496  0.04345037  1
  P  P10  1  0.74946390  0.04345037  0.74798077  1
  P  P11  1  0.74946390  0.74798077  0.45910496  1
  O  O12  1  0.07039893  0.12021949  0.31335637  1
  O  O13  1  0.07039893  0.49602622  0.12021949  1
  O  O14  1  0.07039893  0.31335637  0.49602622  1
  O  O15  1  0.22403343  0.09112917  0.74150420  1
  O  O16  1  0.43912181  0.18314781  0.39041996  1
  O  O17  1  0.26536092  0.40845633  0.56636999  1
  O  O18  1  0.22403343  0.94333420  0.09112917  1
  O  O19  1  0.26536092  0.75981276  0.40845633  1
  O  O20  1  0.56544685  0.62020247  0.99893355  1
  O  O21  1  0.26536092  0.56636999  0.75981276  1
  O  O22  1  0.78027343  0.26622676  0.05154219  1
  O  O23  1  0.56544685  0.99893355  0.81541714  1
  O  O24  1  0.43912181  0.98731042  0.18314781  1
  O  O25  1  0.22403343  0.74150420  0.94333420  1
  O  O26  1  0.72595248  0.44805372  0.23874458  1
  O  O27  1  0.43912181  0.39041996  0.98731042  1
  O  O28  1  0.72595248  0.23874458  0.58725022  1
  O  O29  1  0.78027343  0.05154219  0.90195662  1
  O  O30  1  0.72595248  0.58725022  0.44805372  1
  O  O31  1  0.56544685  0.81541714  0.62020247  1
  O  O32  1  0.78027343  0.90195662  0.26622676  1
  O  O33  1  0.92939678  0.67052327  0.51372427  1
  O  O34  1  0.92939678  0.51372427  0.88635568  1
  O  O35  1  0.92939678  0.88635568  0.67052327  1
