# generated using pymatgen
data_Rb2SbBr6
_symmetry_space_group_name_H-M   'P 1'
_cell_length_a   7.79361386
_cell_length_b   13.50549937
_cell_length_c   13.50823428
_cell_angle_alpha   131.95074066
_cell_angle_beta   29.93156564
_cell_angle_gamma   106.97698599
_symmetry_Int_Tables_number   1
_chemical_formula_structural   Rb2SbBr6
_chemical_formula_sum   'Rb2 Sb1 Br6'
_cell_volume   333.88140619
_cell_formula_units_Z   1
loop_
 _symmetry_equiv_pos_site_id
 _symmetry_equiv_pos_as_xyz
  1  'x, y, z'
loop_
 _atom_site_type_symbol
 _atom_site_label
 _atom_site_symmetry_multiplicity
 _atom_site_fract_x
 _atom_site_fract_y
 _atom_site_fract_z
 _atom_site_occupancy
  Rb  Rb0  1  0.50669126  0.24838390  0.74503602  1
  Rb  Rb1  1  0.50021885  0.75161910  0.25150992  1
  Sb  Sb2  1  0.00020749  0.00000000  0.99989626  1
  Br  Br3  1  0.49245067  0.75391665  0.75371727  1
  Br  Br4  1  0.50811328  0.24608535  0.24600075  1
  Br  Br5  1  0.01408960  0.24599592  0.74000627  1
  Br  Br6  1  0.99047634  0.75187472  0.25776805  1
  Br  Br7  1  0.99807327  0.75400408  0.75391329  1
  Br  Br8  1  0.99797523  0.24812628  0.24800716  1
