# generated using pymatgen
data_Bi3BrO4
_symmetry_space_group_name_H-M   'P 1'
_cell_length_a   3.99056889
_cell_length_b   5.64311335
_cell_length_c   11.00897200
_cell_angle_alpha   120.83629541
_cell_angle_beta   110.99413815
_cell_angle_gamma   45.00430880
_symmetry_Int_Tables_number   1
_chemical_formula_structural   Bi3BrO4
_chemical_formula_sum   'Bi3 Br1 O4'
_cell_volume   150.52776685
_cell_formula_units_Z   1
loop_
 _symmetry_equiv_pos_site_id
 _symmetry_equiv_pos_as_xyz
  1  'x, y, z'
loop_
 _atom_site_type_symbol
 _atom_site_label
 _atom_site_symmetry_multiplicity
 _atom_site_fract_x
 _atom_site_fract_y
 _atom_site_fract_z
 _atom_site_occupancy
  Bi  Bi0  1  0.51111022  0.76789421  0.27349702  1
  Bi  Bi1  1  0.52823457  0.21233710  0.72650430  1
  Bi  Bi2  1  0.52460896  0.98781024  0.00010036  1
  Br  Br3  1  0.52240091  0.48866882  0.49983982  1
  O  O4  1  0.01859902  0.14872257  0.15792228  1
  O  O5  1  0.02281469  0.33067679  0.84209320  1
  O  O6  1  0.02273730  0.83068096  0.84210325  1
  O  O7  1  0.01858733  0.64849631  0.15793977  1
