# generated using pymatgen
data_Ta4Ni2C
_symmetry_space_group_name_H-M   'P 1'
_cell_length_a   8.26253070
_cell_length_b   8.26253070
_cell_length_c   8.26253070
_cell_angle_alpha   60.00000000
_cell_angle_beta   60.00000000
_cell_angle_gamma   60.00000000
_symmetry_Int_Tables_number   1
_chemical_formula_structural   Ta4Ni2C
_chemical_formula_sum   'Ta16 Ni8 C4'
_cell_volume   398.86346811
_cell_formula_units_Z   4
loop_
 _symmetry_equiv_pos_site_id
 _symmetry_equiv_pos_as_xyz
  1  'x, y, z'
loop_
 _atom_site_type_symbol
 _atom_site_label
 _atom_site_symmetry_multiplicity
 _atom_site_fract_x
 _atom_site_fract_y
 _atom_site_fract_z
 _atom_site_occupancy
  Ta  Ta0  1  0.00000000  0.00000000  0.00000000  1
  Ta  Ta1  1  0.00000000  0.00000000  0.49999900  1
  Ta  Ta2  1  0.49999900  0.00000000  0.00000000  1
  Ta  Ta3  1  0.00000000  0.49999900  0.00000000  1
  Ta  Ta4  1  0.80860199  0.44139801  0.44139801  1
  Ta  Ta5  1  0.44139901  0.80860199  0.80860199  1
  Ta  Ta6  1  0.44139801  0.80860199  0.44139801  1
  Ta  Ta7  1  0.44139801  0.44139801  0.80860199  1
  Ta  Ta8  1  0.80860199  0.44139901  0.80860199  1
  Ta  Ta9  1  0.80860199  0.80860199  0.44139901  1
  Ta  Ta10  1  0.55860099  0.19139901  0.55860099  1
  Ta  Ta11  1  0.19139901  0.55860099  0.19139901  1
  Ta  Ta12  1  0.19139901  0.55860099  0.55860099  1
  Ta  Ta13  1  0.55860099  0.55860099  0.19139901  1
  Ta  Ta14  1  0.55860099  0.19139901  0.19139901  1
  Ta  Ta15  1  0.19139901  0.19139901  0.55860099  1
  Ni  Ni16  1  0.20590427  0.20590427  0.20590427  1
  Ni  Ni17  1  0.20590427  0.20590427  0.88228620  1
  Ni  Ni18  1  0.88228620  0.20590427  0.20590427  1
  Ni  Ni19  1  0.20590427  0.88228620  0.20590427  1
  Ni  Ni20  1  0.79409573  0.79409573  0.79409573  1
  Ni  Ni21  1  0.79409573  0.79409573  0.11771480  1
  Ni  Ni22  1  0.79409573  0.11771480  0.79409573  1
  Ni  Ni23  1  0.11771480  0.79409573  0.79409573  1
  C  C24  1  0.50000000  0.50000000  0.50000000  1
  C  C25  1  0.50000000  0.50000000  0.99999800  1
  C  C26  1  0.99999800  0.50000000  0.50000000  1
  C  C27  1  0.50000000  0.99999800  0.50000000  1
