# generated using pymatgen
data_Li2V(SiO3)3
_symmetry_space_group_name_H-M   'P 1'
_cell_length_a   7.87679383
_cell_length_b   9.44464835
_cell_length_c   10.79625006
_cell_angle_alpha   90.00000000
_cell_angle_beta   90.00000000
_cell_angle_gamma   90.00000000
_symmetry_Int_Tables_number   1
_chemical_formula_structural   Li2V(SiO3)3
_chemical_formula_sum   'Li8 V4 Si12 O36'
_cell_volume   803.17134544
_cell_formula_units_Z   4
loop_
 _symmetry_equiv_pos_site_id
 _symmetry_equiv_pos_as_xyz
  1  'x, y, z'
loop_
 _atom_site_type_symbol
 _atom_site_label
 _atom_site_symmetry_multiplicity
 _atom_site_fract_x
 _atom_site_fract_y
 _atom_site_fract_z
 _atom_site_occupancy
  Li  Li0  1  0.91828999  0.37570584  0.99748625  1
  Li  Li1  1  0.15317703  0.19054908  0.57829878  1
  Li  Li2  1  0.34682297  0.80945092  0.07829878  1
  Li  Li3  1  0.58171001  0.62429416  0.49748625  1
  Li  Li4  1  0.41828999  0.12429416  0.00251375  1
  Li  Li5  1  0.65317703  0.30945092  0.42170122  1
  Li  Li6  1  0.84682297  0.69054908  0.92170122  1
  Li  Li7  1  0.08171001  0.87570584  0.50251375  1
  V  V8  1  0.24353698  0.09487501  0.29864972  1
  V  V9  1  0.25646302  0.90512499  0.79864972  1
  V  V10  1  0.74353698  0.40512499  0.70135028  1
  V  V11  1  0.75646302  0.59487501  0.20135028  1
  Si  Si12  1  0.04080158  0.64550888  0.71693605  1
  Si  Si13  1  0.09635085  0.40557026  0.27895098  1
  Si  Si14  1  0.08598029  0.07275946  0.03264521  1
  Si  Si15  1  0.41401971  0.92724054  0.53264521  1
  Si  Si16  1  0.40364915  0.59442974  0.77895098  1
  Si  Si17  1  0.45919842  0.35449112  0.21693605  1
  Si  Si18  1  0.54080158  0.85449112  0.28306395  1
  Si  Si19  1  0.59635085  0.09442974  0.72104902  1
  Si  Si20  1  0.58598029  0.42724054  0.96735479  1
  Si  Si21  1  0.91401971  0.57275946  0.46735479  1
  Si  Si22  1  0.90364915  0.90557026  0.22104902  1
  Si  Si23  1  0.95919842  0.14550888  0.78306395  1
  O  O24  1  0.98438872  0.68736555  0.57239558  1
  O  O25  1  0.08351631  0.50873315  0.40226509  1
  O  O26  1  0.05271493  0.78111418  0.80894787  1
  O  O27  1  0.05721771  0.94147786  0.31710454  1
  O  O28  1  0.09875395  0.24427626  0.34171973  1
  O  O29  1  0.11387657  0.05045694  0.72517059  1
  O  O30  1  0.20960892  0.15881535  0.12559130  1
  O  O31  1  0.21111673  0.95223622  0.97292295  1
  O  O32  1  0.21986506  0.55747639  0.71397566  1
  O  O33  1  0.28013494  0.44252361  0.21397566  1
  O  O34  1  0.28888327  0.04776378  0.47292295  1
  O  O35  1  0.29039108  0.84118465  0.62559130  1
  O  O36  1  0.38612343  0.94954306  0.22517059  1
  O  O37  1  0.40124605  0.75572374  0.84171973  1
  O  O38  1  0.44278229  0.05852214  0.81710454  1
  O  O39  1  0.44728507  0.21888582  0.30894787  1
  O  O40  1  0.41648369  0.49126685  0.90226509  1
  O  O41  1  0.51561128  0.31263445  0.07239558  1
  O  O42  1  0.48438872  0.81263445  0.42760442  1
  O  O43  1  0.58351631  0.99126685  0.59773491  1
  O  O44  1  0.55271493  0.71888582  0.19105213  1
  O  O45  1  0.55721771  0.55852214  0.68289546  1
  O  O46  1  0.59875395  0.25572374  0.65828027  1
  O  O47  1  0.61387657  0.44954306  0.27482941  1
  O  O48  1  0.70960892  0.34118465  0.87440870  1
  O  O49  1  0.71111673  0.54776378  0.02707705  1
  O  O50  1  0.71986506  0.94252361  0.28602434  1
  O  O51  1  0.78013494  0.05747639  0.78602434  1
  O  O52  1  0.78888327  0.45223622  0.52707705  1
  O  O53  1  0.79039108  0.65881535  0.37440870  1
  O  O54  1  0.88612343  0.55045694  0.77482941  1
  O  O55  1  0.90124605  0.74427626  0.15828027  1
  O  O56  1  0.94278229  0.44147786  0.18289546  1
  O  O57  1  0.94728507  0.28111418  0.69105213  1
  O  O58  1  0.91648369  0.00873315  0.09773491  1
  O  O59  1  0.01561128  0.18736555  0.92760442  1
