# generated using pymatgen
data_La17Al4(Si3N11)3
_symmetry_space_group_name_H-M   'P 1'
_cell_length_a   10.92502703
_cell_length_b   10.92502703
_cell_length_c   10.92502703
_cell_angle_alpha   60.00000000
_cell_angle_beta   60.00000000
_cell_angle_gamma   60.00000000
_symmetry_Int_Tables_number   1
_chemical_formula_structural   La17Al4(Si3N11)3
_chemical_formula_sum   'La17 Al4 Si9 N33'
_cell_volume   922.04594668
_cell_formula_units_Z   1
loop_
 _symmetry_equiv_pos_site_id
 _symmetry_equiv_pos_as_xyz
  1  'x, y, z'
loop_
 _atom_site_type_symbol
 _atom_site_label
 _atom_site_symmetry_multiplicity
 _atom_site_fract_x
 _atom_site_fract_y
 _atom_site_fract_z
 _atom_site_occupancy
  La  La0  1  0.75000000  0.75000000  0.75000000  1
  La  La1  1  0.79224238  0.20775762  0.79224238  1
  La  La2  1  0.20775762  0.79224238  0.20775762  1
  La  La3  1  0.79224238  0.79224238  0.20775762  1
  La  La4  1  0.20775762  0.79224238  0.79224238  1
  La  La5  1  0.79224238  0.20775762  0.20775762  1
  La  La6  1  0.20775762  0.20775762  0.79224238  1
  La  La7  1  0.50806411  0.50806411  0.99193489  1
  La  La8  1  0.99193489  0.99193489  0.50806411  1
  La  La9  1  0.99193489  0.50806411  0.50806411  1
  La  La10  1  0.50806411  0.99193489  0.50806411  1
  La  La11  1  0.50806411  0.99193489  0.99193489  1
  La  La12  1  0.99193489  0.50806411  0.99193489  1
  La  La13  1  0.58723230  0.23830309  0.58723230  1
  La  La14  1  0.23830309  0.58723230  0.58723230  1
  La  La15  1  0.58723230  0.58723230  0.23830309  1
  La  La16  1  0.58723230  0.58723230  0.58723230  1
  Al  Al17  1  0.17902766  0.46291602  0.17902766  1
  Al  Al18  1  0.46291602  0.17902766  0.17902766  1
  Al  Al19  1  0.17902766  0.17902766  0.46291602  1
  Al  Al20  1  0.17902766  0.17902766  0.17902766  1
  Si  Si21  1  0.86679839  0.39960682  0.86679839  1
  Si  Si22  1  0.39960682  0.86679839  0.86679839  1
  Si  Si23  1  0.86679839  0.86679839  0.39960682  1
  Si  Si24  1  0.86679839  0.86679839  0.86679839  1
  Si  Si25  1  0.36545251  0.36545251  0.90364246  1
  Si  Si26  1  0.36545251  0.36545251  0.36545251  1
  Si  Si27  1  0.36545251  0.90364246  0.36545251  1
  Si  Si28  1  0.90364246  0.36545251  0.36545251  1
  Si  Si29  1  0.00000000  0.00000000  0.00000000  1
  N  N30  1  0.93467670  0.19597091  0.93467670  1
  N  N31  1  0.19597091  0.93467670  0.93467670  1
  N  N32  1  0.93467670  0.93467670  0.19597091  1
  N  N33  1  0.93467670  0.93467670  0.93467670  1
  N  N34  1  0.25000000  0.25000000  0.25000000  1
  N  N35  1  0.75832745  0.46468698  0.75832745  1
  N  N36  1  0.46468698  0.75832745  0.01865811  1
  N  N37  1  0.01865811  0.75832745  0.46468698  1
  N  N38  1  0.75832745  0.01865811  0.75832745  1
  N  N39  1  0.75832745  0.75832745  0.46468698  1
  N  N40  1  0.46468698  0.75832745  0.75832745  1
  N  N41  1  0.75832745  0.75832745  0.01865811  1
  N  N42  1  0.75832745  0.01865811  0.46468698  1
  N  N43  1  0.01865811  0.46468698  0.75832745  1
  N  N44  1  0.75832745  0.46468698  0.01865811  1
  N  N45  1  0.46468698  0.01865811  0.75832745  1
  N  N46  1  0.01865811  0.75832745  0.75832745  1
  N  N47  1  0.96700026  0.25501554  0.52296665  1
  N  N48  1  0.25501654  0.96699926  0.25501654  1
  N  N49  1  0.25501654  0.52296665  0.25501654  1
  N  N50  1  0.52296665  0.25501554  0.96700026  1
  N  N51  1  0.52296665  0.96700026  0.25501554  1
  N  N52  1  0.25501554  0.52296665  0.96700026  1
  N  N53  1  0.96700026  0.52296665  0.25501554  1
  N  N54  1  0.96699926  0.25501654  0.25501654  1
  N  N55  1  0.25501654  0.25501654  0.96699926  1
  N  N56  1  0.52296665  0.25501654  0.25501654  1
  N  N57  1  0.25501654  0.25501654  0.52296665  1
  N  N58  1  0.25501554  0.96700026  0.52296665  1
  N  N59  1  0.43026850  0.43026850  0.70919449  1
  N  N60  1  0.43026850  0.43026850  0.43026850  1
  N  N61  1  0.43026850  0.70919449  0.43026850  1
  N  N62  1  0.70919449  0.43026850  0.43026850  1
