# generated using pymatgen
data_LiNi4(PO4)3
_symmetry_space_group_name_H-M   'P 1'
_cell_length_a   12.99434683
_cell_length_b   7.68368652
_cell_length_c   10.21527657
_cell_angle_alpha   90.00000000
_cell_angle_beta   90.00000000
_cell_angle_gamma   90.00000000
_symmetry_Int_Tables_number   1
_chemical_formula_structural   LiNi4(PO4)3
_chemical_formula_sum   'Li4 Ni16 P12 O48'
_cell_volume   1019.93905456
_cell_formula_units_Z   4
loop_
 _symmetry_equiv_pos_site_id
 _symmetry_equiv_pos_as_xyz
  1  'x, y, z'
loop_
 _atom_site_type_symbol
 _atom_site_label
 _atom_site_symmetry_multiplicity
 _atom_site_fract_x
 _atom_site_fract_y
 _atom_site_fract_z
 _atom_site_occupancy
  Li  Li0  1  0.25000000  0.75000000  0.72547231  1
  Li  Li1  1  0.25000000  0.75000000  0.22547231  1
  Li  Li2  1  0.75000000  0.25000000  0.27452769  1
  Li  Li3  1  0.75000000  0.25000000  0.77452769  1
  Ni  Ni4  1  0.02927672  0.11222281  0.20221221  1
  Ni  Ni5  1  0.02927672  0.38777719  0.70221221  1
  Ni  Ni6  1  0.16051427  0.39998351  0.99331435  1
  Ni  Ni7  1  0.16051427  0.10001649  0.49331435  1
  Ni  Ni8  1  0.33948573  0.39998351  0.49331435  1
  Ni  Ni9  1  0.33948573  0.10001649  0.99331435  1
  Ni  Ni10  1  0.47072328  0.11222281  0.70221221  1
  Ni  Ni11  1  0.47072328  0.38777719  0.20221221  1
  Ni  Ni12  1  0.52927672  0.88777719  0.29778779  1
  Ni  Ni13  1  0.52927672  0.61222281  0.79778779  1
  Ni  Ni14  1  0.66051427  0.60001649  0.50668565  1
  Ni  Ni15  1  0.66051427  0.89998351  0.00668565  1
  Ni  Ni16  1  0.83948573  0.60001649  0.00668565  1
  Ni  Ni17  1  0.83948573  0.89998351  0.50668565  1
  Ni  Ni18  1  0.97072328  0.61222281  0.29778779  1
  Ni  Ni19  1  0.97072328  0.88777719  0.79778779  1
  P  P20  1  0.07073366  0.74590646  0.57120849  1
  P  P21  1  0.07073366  0.75409354  0.07120849  1
  P  P22  1  0.25000000  0.25000000  0.75113972  1
  P  P23  1  0.25000000  0.25000000  0.25113972  1
  P  P24  1  0.42926634  0.74590646  0.07120849  1
  P  P25  1  0.42926634  0.75409354  0.57120849  1
  P  P26  1  0.57073366  0.24590646  0.42879151  1
  P  P27  1  0.57073366  0.25409354  0.92879151  1
  P  P28  1  0.75000000  0.75000000  0.24886028  1
  P  P29  1  0.75000000  0.75000000  0.74886028  1
  P  P30  1  0.92926634  0.24590646  0.92879151  1
  P  P31  1  0.92926634  0.25409354  0.42879151  1
  O  O32  1  0.03128908  0.14681854  0.39879120  1
  O  O33  1  0.03128908  0.35318146  0.89879120  1
  O  O34  1  0.06268544  0.65004181  0.44187341  1
  O  O35  1  0.06268544  0.84995819  0.94187341  1
  O  O36  1  0.08727169  0.87423677  0.19181231  1
  O  O37  1  0.08727169  0.62576323  0.69181231  1
  O  O38  1  0.16284023  0.62599747  0.07652955  1
  O  O39  1  0.16284023  0.87400253  0.57652955  1
  O  O40  1  0.15430251  0.25203679  0.15634726  1
  O  O41  1  0.15430251  0.24796321  0.65634726  1
  O  O42  1  0.24838595  0.08444883  0.33628641  1
  O  O43  1  0.24838595  0.41555117  0.83628641  1
  O  O44  1  0.25161405  0.08444883  0.83628641  1
  O  O45  1  0.25161405  0.41555117  0.33628641  1
  O  O46  1  0.34569749  0.25203679  0.65634726  1
  O  O47  1  0.34569749  0.24796321  0.15634726  1
  O  O48  1  0.33715977  0.87400253  0.07652955  1
  O  O49  1  0.33715977  0.62599747  0.57652955  1
  O  O50  1  0.41272831  0.87423677  0.69181231  1
  O  O51  1  0.41272831  0.62576323  0.19181231  1
  O  O52  1  0.43731456  0.84995819  0.44187341  1
  O  O53  1  0.43731456  0.65004181  0.94187341  1
  O  O54  1  0.46871092  0.35318146  0.39879120  1
  O  O55  1  0.46871092  0.14681854  0.89879120  1
  O  O56  1  0.53128908  0.64681854  0.60120880  1
  O  O57  1  0.53128908  0.85318146  0.10120880  1
  O  O58  1  0.56268544  0.15004181  0.55812659  1
  O  O59  1  0.56268544  0.34995819  0.05812659  1
  O  O60  1  0.58727169  0.12576323  0.30818769  1
  O  O61  1  0.58727169  0.37423677  0.80818769  1
  O  O62  1  0.66284023  0.12599747  0.92347045  1
  O  O63  1  0.66284023  0.37400253  0.42347045  1
  O  O64  1  0.65430251  0.74796321  0.34365274  1
  O  O65  1  0.65430251  0.75203679  0.84365274  1
  O  O66  1  0.74838595  0.58444883  0.66371359  1
  O  O67  1  0.74838595  0.91555117  0.16371359  1
  O  O68  1  0.75161405  0.58444883  0.16371359  1
  O  O69  1  0.75161405  0.91555117  0.66371359  1
  O  O70  1  0.84569749  0.74796321  0.84365274  1
  O  O71  1  0.84569749  0.75203679  0.34365274  1
  O  O72  1  0.83715977  0.12599747  0.42347045  1
  O  O73  1  0.83715977  0.37400253  0.92347045  1
  O  O74  1  0.91272831  0.12576323  0.80818769  1
  O  O75  1  0.91272831  0.37423677  0.30818769  1
  O  O76  1  0.93731456  0.15004181  0.05812659  1
  O  O77  1  0.93731456  0.34995819  0.55812659  1
  O  O78  1  0.96871092  0.64681854  0.10120880  1
  O  O79  1  0.96871092  0.85318146  0.60120880  1
