# generated using pymatgen
data_LiFeHSO5
_symmetry_space_group_name_H-M   'P 1'
_cell_length_a   5.56416258
_cell_length_b   7.53938822
_cell_length_c   9.85531698
_cell_angle_alpha   110.49696316
_cell_angle_beta   90.00000000
_cell_angle_gamma   90.00000000
_symmetry_Int_Tables_number   1
_chemical_formula_structural   LiFeHSO5
_chemical_formula_sum   'Li4 Fe4 H4 S4 O20'
_cell_volume   387.26009395
_cell_formula_units_Z   4
loop_
 _symmetry_equiv_pos_site_id
 _symmetry_equiv_pos_as_xyz
  1  'x, y, z'
loop_
 _atom_site_type_symbol
 _atom_site_label
 _atom_site_symmetry_multiplicity
 _atom_site_fract_x
 _atom_site_fract_y
 _atom_site_fract_z
 _atom_site_occupancy
  Li  Li0  1  0.56278876  0.31203443  0.08518680  1
  Li  Li1  1  0.06278876  0.18796557  0.91481320  1
  Li  Li2  1  0.43721124  0.68796557  0.91481320  1
  Li  Li3  1  0.93721124  0.81203443  0.08518680  1
  Fe  Fe4  1  0.23681612  0.12653096  0.55522627  1
  Fe  Fe5  1  0.73681612  0.37346904  0.44477373  1
  Fe  Fe6  1  0.76318388  0.87346904  0.44477373  1
  Fe  Fe7  1  0.26318388  0.62653096  0.55522627  1
  H  H8  1  0.50145878  0.59320720  0.33232412  1
  H  H9  1  0.00145878  0.90679280  0.66767588  1
  H  H10  1  0.49854122  0.40679280  0.66767588  1
  H  H11  1  0.99854122  0.09320720  0.33232412  1
  S  S12  1  0.93897312  0.49261049  0.78891919  1
  S  S13  1  0.43897312  0.00738951  0.21108081  1
  S  S14  1  0.06102688  0.50738951  0.21108081  1
  S  S15  1  0.56102688  0.99261049  0.78891919  1
  O  O16  1  0.07314244  0.87265090  0.57027755  1
  O  O17  1  0.57314244  0.62734910  0.42972245  1
  O  O18  1  0.92685756  0.12734910  0.42972245  1
  O  O19  1  0.42685756  0.37265090  0.57027755  1
  O  O20  1  0.55450765  0.03635042  0.65083168  1
  O  O21  1  0.05450765  0.46364958  0.34916832  1
  O  O22  1  0.44549235  0.96364958  0.34916832  1
  O  O23  1  0.94549235  0.53635042  0.65083168  1
  O  O24  1  0.44846741  0.80289662  0.76014361  1
  O  O25  1  0.94846741  0.69710338  0.23985639  1
  O  O26  1  0.55153259  0.19710338  0.23985639  1
  O  O27  1  0.05153259  0.30289662  0.76014361  1
  O  O28  1  0.31337262  0.50900213  0.16439523  1
  O  O29  1  0.81337262  0.99099787  0.83560477  1
  O  O30  1  0.68662738  0.49099787  0.83560477  1
  O  O31  1  0.18662738  0.00900213  0.16439523  1
  O  O32  1  0.58006624  0.86242316  0.09686797  1
  O  O33  1  0.08006624  0.63757684  0.90313203  1
  O  O34  1  0.41993376  0.13757684  0.90313203  1
  O  O35  1  0.91993376  0.36242316  0.09686797  1
