# generated using pymatgen
data_CaMoN3
_symmetry_space_group_name_H-M   'P 1'
_cell_length_a   3.70989129
_cell_length_b   6.42467871
_cell_length_c   6.51477998
_cell_angle_alpha   104.30290503
_cell_angle_beta   106.54263950
_cell_angle_gamma   90.00000087
_symmetry_Int_Tables_number   1
_chemical_formula_structural   CaMoN3
_chemical_formula_sum   'Ca2 Mo2 N6'
_cell_volume   143.82349971
_cell_formula_units_Z   2
loop_
 _symmetry_equiv_pos_site_id
 _symmetry_equiv_pos_as_xyz
  1  'x, y, z'
loop_
 _atom_site_type_symbol
 _atom_site_label
 _atom_site_symmetry_multiplicity
 _atom_site_fract_x
 _atom_site_fract_y
 _atom_site_fract_z
 _atom_site_occupancy
  Ca  Ca0  1  0.62393000  0.33135000  0.24786000  1
  Ca  Ca1  1  0.37607000  0.66865000  0.75214000  1
  Mo  Mo2  1  0.84813000  0.14285000  0.69626000  1
  Mo  Mo3  1  0.15187000  0.85715000  0.30374000  1
  N  N4  1  0.32109000  0.01147000  0.64218000  1
  N  N5  1  0.15618000  0.58133000  0.31236000  1
  N  N6  1  0.99992000  0.89438000  0.99984000  1
  N  N7  1  0.00008000  0.10562000  0.00016000  1
  N  N8  1  0.67891000  0.98853000  0.35782000  1
  N  N9  1  0.84382000  0.41867000  0.68764000  1
