# generated using pymatgen
data_Ac3Tl
_symmetry_space_group_name_H-M   'P 1'
_cell_length_a   7.74259907
_cell_length_b   7.74259898
_cell_length_c   6.03932217
_cell_angle_alpha   90.00000000
_cell_angle_beta   90.00000000
_cell_angle_gamma   120.00000484
_symmetry_Int_Tables_number   1
_chemical_formula_structural   Ac3Tl
_chemical_formula_sum   'Ac6 Tl2'
_cell_volume   313.53956081
_cell_formula_units_Z   2
loop_
 _symmetry_equiv_pos_site_id
 _symmetry_equiv_pos_as_xyz
  1  'x, y, z'
loop_
 _atom_site_type_symbol
 _atom_site_label
 _atom_site_symmetry_multiplicity
 _atom_site_fract_x
 _atom_site_fract_y
 _atom_site_fract_z
 _atom_site_occupancy
  Ac  Ac0  1  0.17448623  0.34897347  0.25000100  1
  Ac  Ac1  1  0.65102653  0.82551377  0.25000100  1
  Ac  Ac2  1  0.17448723  0.82551377  0.25000100  1
  Ac  Ac3  1  0.82551277  0.65102553  0.75000100  1
  Ac  Ac4  1  0.34897347  0.17448623  0.75000100  1
  Ac  Ac5  1  0.82551277  0.17448623  0.75000100  1
  Tl  Tl6  1  0.33333400  0.66666800  0.75000100  1
  Tl  Tl7  1  0.66666800  0.33333300  0.25000100  1
