# generated using pymatgen
data_Y(Re2Si)2
_symmetry_space_group_name_H-M   'P 1'
_cell_length_a   4.14608776
_cell_length_b   7.41295388
_cell_length_c   7.41295388
_cell_angle_alpha   90.00000000
_cell_angle_beta   90.00000000
_cell_angle_gamma   90.00000000
_symmetry_Int_Tables_number   1
_chemical_formula_structural   Y(Re2Si)2
_chemical_formula_sum   'Y2 Si4 Re8'
_cell_volume   227.83533873
_cell_formula_units_Z   2
loop_
 _symmetry_equiv_pos_site_id
 _symmetry_equiv_pos_as_xyz
  1  'x, y, z'
loop_
 _atom_site_type_symbol
 _atom_site_label
 _atom_site_symmetry_multiplicity
 _atom_site_fract_x
 _atom_site_fract_y
 _atom_site_fract_z
 _atom_site_occupancy
  Si  Si0  1  0.00000000  0.79097177  0.20902823  1
  Si  Si1  1  0.00000000  0.20902823  0.79097177  1
  Si  Si2  1  0.50000000  0.70902823  0.70902823  1
  Si  Si3  1  0.50000000  0.29097177  0.29097177  1
  Y  Y4  1  0.00000000  0.50000000  0.50000000  1
  Y  Y5  1  0.50000000  0.00000000  0.00000000  1
  Re  Re6  1  0.00000000  0.90606343  0.65779986  1
  Re  Re7  1  0.50000000  0.59393657  0.15779986  1
  Re  Re8  1  0.00000000  0.34220014  0.09393657  1
  Re  Re9  1  0.00000000  0.65779986  0.90606343  1
  Re  Re10  1  0.50000000  0.84220014  0.40606343  1
  Re  Re11  1  0.50000000  0.15779986  0.59393657  1
  Re  Re12  1  0.00000000  0.09393657  0.34220014  1
  Re  Re13  1  0.50000000  0.40606343  0.84220014  1
