# generated using pymatgen
data_Li3Fe(PO4)2
_symmetry_space_group_name_H-M   'P 1'
_cell_length_a   19.67860856
_cell_length_b   5.09208728
_cell_length_c   12.81801068
_cell_angle_alpha   90.00000000
_cell_angle_beta   71.02293094
_cell_angle_gamma   90.00000000
_symmetry_Int_Tables_number   1
_chemical_formula_structural   Li3Fe(PO4)2
_chemical_formula_sum   'Li24 Fe8 P16 O64'
_cell_volume   1214.62084583
_cell_formula_units_Z   8
loop_
 _symmetry_equiv_pos_site_id
 _symmetry_equiv_pos_as_xyz
  1  'x, y, z'
loop_
 _atom_site_type_symbol
 _atom_site_label
 _atom_site_symmetry_multiplicity
 _atom_site_fract_x
 _atom_site_fract_y
 _atom_site_fract_z
 _atom_site_occupancy
  Li  Li0  1  0.03287706  0.70222291  0.81643981  1
  Li  Li1  1  0.11851843  0.19983511  0.71442480  1
  Li  Li2  1  0.03287706  0.79777709  0.31643981  1
  Li  Li3  1  0.18566268  0.79164867  0.56699015  1
  Li  Li4  1  0.32125910  0.28671952  0.74864787  1
  Li  Li5  1  0.11851843  0.30016489  0.21442480  1
  Li  Li6  1  0.38234119  0.69005454  0.82670868  1
  Li  Li7  1  0.18566268  0.70835133  0.06699015  1
  Li  Li8  1  0.46313834  0.20243296  0.85209446  1
  Li  Li9  1  0.32125910  0.21328048  0.24864787  1
  Li  Li10  1  0.38234119  0.80994546  0.32670868  1
  Li  Li11  1  0.53686166  0.70243296  0.64790554  1
  Li  Li12  1  0.46313834  0.29756704  0.35209446  1
  Li  Li13  1  0.61765881  0.19005454  0.67329132  1
  Li  Li14  1  0.67874090  0.78671952  0.75135213  1
  Li  Li15  1  0.53686166  0.79756704  0.14790554  1
  Li  Li16  1  0.81433732  0.29164867  0.93300985  1
  Li  Li17  1  0.61765881  0.30994546  0.17329132  1
  Li  Li18  1  0.88148157  0.69983511  0.78557520  1
  Li  Li19  1  0.67874090  0.71328048  0.25135213  1
  Li  Li20  1  0.81433732  0.20835133  0.43300985  1
  Li  Li21  1  0.96712294  0.20222291  0.68356019  1
  Li  Li22  1  0.88148157  0.80016489  0.28557520  1
  Li  Li23  1  0.96712294  0.29777709  0.18356019  1
  Fe  Fe24  1  0.14072326  0.21102731  0.97365433  1
  Fe  Fe25  1  0.14072326  0.28897269  0.47365433  1
  Fe  Fe26  1  0.36158379  0.77273889  0.61380779  1
  Fe  Fe27  1  0.63841621  0.27273889  0.88619221  1
  Fe  Fe28  1  0.36158379  0.72726111  0.11380779  1
  Fe  Fe29  1  0.63841621  0.22726111  0.38619221  1
  Fe  Fe30  1  0.85927674  0.71102731  0.52634567  1
  Fe  Fe31  1  0.85927674  0.78897269  0.02634567  1
  P  P32  1  0.04255500  0.75968665  0.57502671  1
  P  P33  1  0.19981071  0.70265193  0.80510234  1
  P  P34  1  0.30197884  0.22310281  0.00551127  1
  P  P35  1  0.04255500  0.74031335  0.07502671  1
  P  P36  1  0.19981071  0.79734807  0.30510234  1
  P  P37  1  0.30197884  0.27689719  0.50551127  1
  P  P38  1  0.53872250  0.75059009  0.88537801  1
  P  P39  1  0.46127750  0.25059009  0.61462199  1
  P  P40  1  0.53872250  0.74940991  0.38537801  1
  P  P41  1  0.46127750  0.24940991  0.11462199  1
  P  P42  1  0.69802116  0.72310281  0.49448873  1
  P  P43  1  0.80018929  0.20265193  0.69489766  1
  P  P44  1  0.95744500  0.25968665  0.92497329  1
  P  P45  1  0.69802116  0.77689719  0.99448873  1
  P  P46  1  0.80018929  0.29734807  0.19489766  1
  P  P47  1  0.95744500  0.24031335  0.42497329  1
  O  O48  1  0.03030704  0.75832485  0.96492614  1
  O  O49  1  0.02317438  0.29169701  0.82000293  1
  O  O50  1  0.03030704  0.74167515  0.46492614  1
  O  O51  1  0.09492040  0.99760717  0.57512837  1
  O  O52  1  0.08517619  0.51246530  0.59644782  1
  O  O53  1  0.18846983  0.86693558  0.91102407  1
  O  O54  1  0.16137069  0.82179833  0.73020095  1
  O  O55  1  0.02317438  0.20830299  0.32000293  1
  O  O56  1  0.17478882  0.40936204  0.83313227  1
  O  O57  1  0.21950857  0.22693317  0.53183453  1
  O  O58  1  0.34566128  0.31763954  0.88971083  1
  O  O59  1  0.28374571  0.68486825  0.75086759  1
  O  O60  1  0.09492040  0.50239283  0.07512837  1
  O  O61  1  0.08517619  0.98753470  0.09644782  1
  O  O62  1  0.18846983  0.63306442  0.41102407  1
  O  O63  1  0.16137069  0.67820167  0.23020095  1
  O  O64  1  0.17478882  0.09063796  0.33313227  1
  O  O65  1  0.31845098  0.11897943  0.59802576  1
  O  O66  1  0.31596368  0.57752292  0.51743165  1
  O  O67  1  0.47116123  0.78193492  0.85078883  1
  O  O68  1  0.41826978  0.00511505  0.68033662  1
  O  O69  1  0.41022690  0.49086000  0.66889554  1
  O  O70  1  0.52856222  0.74018518  0.00671401  1
  O  O71  1  0.21950857  0.27306683  0.03183353  1
  O  O72  1  0.34566128  0.18236046  0.38971083  1
  O  O73  1  0.28374571  0.81513175  0.25086759  1
  O  O74  1  0.31845098  0.38102057  0.09802576  1
  O  O75  1  0.47143778  0.24018518  0.49328599  1
  O  O76  1  0.31596368  0.92247708  0.01743165  1
  O  O77  1  0.58977310  0.99086000  0.83110446  1
  O  O78  1  0.58173022  0.50511505  0.81966338  1
  O  O79  1  0.52883877  0.28193492  0.64921117  1
  O  O80  1  0.47116123  0.71806508  0.35078883  1
  O  O81  1  0.41826978  0.49488495  0.18033662  1
  O  O82  1  0.41022690  0.00914000  0.16889554  1
  O  O83  1  0.68403632  0.07752292  0.98256835  1
  O  O84  1  0.52856222  0.75981482  0.50671401  1
  O  O85  1  0.68154902  0.61897943  0.90197424  1
  O  O86  1  0.71625429  0.18486825  0.74913241  1
  O  O87  1  0.65433872  0.81763954  0.61028917  1
  O  O88  1  0.78049143  0.72693317  0.96816547  1
  O  O89  1  0.47143778  0.25981482  0.99328599  1
  O  O90  1  0.58977310  0.50914000  0.33110446  1
  O  O91  1  0.58173022  0.99488495  0.31966338  1
  O  O92  1  0.52883877  0.21806508  0.14921117  1
  O  O93  1  0.68403632  0.42247708  0.48256835  1
  O  O94  1  0.68154902  0.88102057  0.40197424  1
  O  O95  1  0.82521118  0.90936204  0.66686773  1
  O  O96  1  0.83862931  0.32179833  0.76979905  1
  O  O97  1  0.81153017  0.36693558  0.58897593  1
  O  O98  1  0.91482381  0.01246530  0.90355218  1
  O  O99  1  0.90507960  0.49760717  0.92487163  1
  O  O100  1  0.71625429  0.31513175  0.24913241  1
  O  O101  1  0.65433872  0.68236046  0.11028917  1
  O  O102  1  0.78049143  0.77306683  0.46816647  1
  O  O103  1  0.82521118  0.59063796  0.16686773  1
  O  O104  1  0.97682562  0.79169701  0.67999707  1
  O  O105  1  0.83862931  0.17820167  0.26979905  1
  O  O106  1  0.81153017  0.13306442  0.08897593  1
  O  O107  1  0.91482381  0.48753470  0.40355218  1
  O  O108  1  0.90507960  0.00239283  0.42487163  1
  O  O109  1  0.96969296  0.25832485  0.53507386  1
  O  O110  1  0.97682562  0.70830299  0.17999707  1
  O  O111  1  0.96969296  0.24167515  0.03507386  1
