# generated using pymatgen
data_YWN3
_symmetry_space_group_name_H-M   'P 1'
_cell_length_a   11.18875270
_cell_length_b   9.64525196
_cell_length_c   6.31064466
_cell_angle_alpha   90.00000000
_cell_angle_beta   112.18357019
_cell_angle_gamma   90.00000000
_symmetry_Int_Tables_number   1
_chemical_formula_structural   YWN3
_chemical_formula_sum   'Y8 W8 N24'
_cell_volume   630.62337812
_cell_formula_units_Z   8
loop_
 _symmetry_equiv_pos_site_id
 _symmetry_equiv_pos_as_xyz
  1  'x, y, z'
loop_
 _atom_site_type_symbol
 _atom_site_label
 _atom_site_symmetry_multiplicity
 _atom_site_fract_x
 _atom_site_fract_y
 _atom_site_fract_z
 _atom_site_occupancy
  Y  Y0  1  0.00000000  0.28872549  0.75000000  1
  Y  Y1  1  0.00000000  0.90976427  0.75000000  1
  Y  Y2  1  0.00000000  0.71127451  0.25000000  1
  Y  Y3  1  0.00000000  0.09023573  0.25000000  1
  Y  Y4  1  0.50000000  0.78872549  0.75000000  1
  Y  Y5  1  0.50000000  0.40976427  0.75000000  1
  Y  Y6  1  0.50000000  0.21127451  0.25000000  1
  Y  Y7  1  0.50000000  0.59023573  0.25000000  1
  W  W8  1  0.20923385  0.41090493  0.22488447  1
  W  W9  1  0.79076615  0.58909507  0.77511553  1
  W  W10  1  0.79076615  0.41090493  0.27511553  1
  W  W11  1  0.20923385  0.58909507  0.72488447  1
  W  W12  1  0.70923385  0.91090493  0.22488447  1
  W  W13  1  0.29076615  0.08909507  0.77511553  1
  W  W14  1  0.29076615  0.91090493  0.27511553  1
  W  W15  1  0.70923385  0.08909507  0.72488447  1
  N  N16  1  0.13051996  0.24460436  0.16008039  1
  N  N17  1  0.14503213  0.51148025  0.42739960  1
  N  N18  1  0.38916199  0.60848209  0.84493863  1
  N  N19  1  0.86948004  0.75539564  0.83991961  1
  N  N20  1  0.61083801  0.60848209  0.65506137  1
  N  N21  1  0.13051996  0.75539564  0.66008039  1
  N  N22  1  0.86948004  0.24460436  0.33991961  1
  N  N23  1  0.85496787  0.48851975  0.57260040  1
  N  N24  1  0.85496787  0.51148025  0.07260040  1
  N  N25  1  0.14503213  0.48851975  0.92739960  1
  N  N26  1  0.61083801  0.39151791  0.15506137  1
  N  N27  1  0.38916199  0.39151791  0.34493863  1
  N  N28  1  0.63051996  0.74460436  0.16008039  1
  N  N29  1  0.64503213  0.01148025  0.42739960  1
  N  N30  1  0.88916199  0.10848209  0.84493863  1
  N  N31  1  0.36948004  0.25539564  0.83991961  1
  N  N32  1  0.11083801  0.10848209  0.65506137  1
  N  N33  1  0.63051996  0.25539564  0.66008039  1
  N  N34  1  0.36948004  0.74460436  0.33991961  1
  N  N35  1  0.35496787  0.98851975  0.57260040  1
  N  N36  1  0.35496787  0.01148025  0.07260040  1
  N  N37  1  0.64503213  0.98851975  0.92739960  1
  N  N38  1  0.11083801  0.89151791  0.15506137  1
  N  N39  1  0.88916199  0.89151791  0.34493863  1
