# generated using pymatgen
data_Na4ReN3
_symmetry_space_group_name_H-M   'P 1'
_cell_length_a   6.09725076
_cell_length_b   6.28895422
_cell_length_c   8.81608448
_cell_angle_alpha   70.21979017
_cell_angle_beta   69.76919977
_cell_angle_gamma   61.00333465
_symmetry_Int_Tables_number   1
_chemical_formula_structural   Na4ReN3
_chemical_formula_sum   'Na8 Re2 N6'
_cell_volume   271.36483224
_cell_formula_units_Z   2
loop_
 _symmetry_equiv_pos_site_id
 _symmetry_equiv_pos_as_xyz
  1  'x, y, z'
loop_
 _atom_site_type_symbol
 _atom_site_label
 _atom_site_symmetry_multiplicity
 _atom_site_fract_x
 _atom_site_fract_y
 _atom_site_fract_z
 _atom_site_occupancy
  N  N0  1  0.37591214  0.39042200  0.68850652  1
  N  N1  1  0.54515933  0.89042200  0.18850652  1
  N  N2  1  0.16907989  0.04575041  0.64580530  1
  N  N3  1  0.13936440  0.54575041  0.14580530  1
  N  N4  1  0.82663758  0.45381535  0.86693179  1
  N  N5  1  0.85261528  0.95381535  0.36693179  1
  Na  Na6  1  0.99693787  0.24173005  0.13537317  1
  Na  Na7  1  0.79441211  0.24252699  0.52704456  1
  Na  Na8  1  0.25735694  0.75274537  0.45693451  1
  Na  Na9  1  0.53296318  0.25274537  0.95693451  1
  Na  Na10  1  0.04012247  0.72953344  0.86149073  1
  Na  Na11  1  0.36885336  0.22953344  0.36149073  1
  Na  Na12  1  0.43601634  0.74252699  0.02704456  1
  Na  Na13  1  0.62595890  0.74173005  0.63537317  1
  Re  Re14  1  0.13582302  0.26977639  0.75001342  1
  Re  Re15  1  0.84438716  0.76977639  0.25001342  1
