# generated using pymatgen
data_LaSi3N5
_symmetry_space_group_name_H-M   'P 1'
_cell_length_a   7.90451307
_cell_length_b   11.34637632
_cell_length_c   4.83580588
_cell_angle_alpha   90.00000000
_cell_angle_beta   90.00000000
_cell_angle_gamma   90.00000000
_symmetry_Int_Tables_number   1
_chemical_formula_structural   LaSi3N5
_chemical_formula_sum   'La4 Si12 N20'
_cell_volume   433.71172633
_cell_formula_units_Z   4
loop_
 _symmetry_equiv_pos_site_id
 _symmetry_equiv_pos_as_xyz
  1  'x, y, z'
loop_
 _atom_site_type_symbol
 _atom_site_label
 _atom_site_symmetry_multiplicity
 _atom_site_fract_x
 _atom_site_fract_y
 _atom_site_fract_z
 _atom_site_occupancy
  La  La0  1  0.93986349  0.66985117  0.99413031  1
  La  La1  1  0.56013651  0.33014883  0.49413031  1
  La  La2  1  0.43986349  0.83014883  0.00586969  1
  La  La3  1  0.06013651  0.16985117  0.50586969  1
  Si  Si4  1  0.66189255  0.66045642  0.48597152  1
  Si  Si5  1  0.83810745  0.33954358  0.98597152  1
  Si  Si6  1  0.16189255  0.83954358  0.51402848  1
  Si  Si7  1  0.33810745  0.16045642  0.01402848  1
  Si  Si8  1  0.79310124  0.91669944  0.48339687  1
  Si  Si9  1  0.70689876  0.08330056  0.98339687  1
  Si  Si10  1  0.29310124  0.58330056  0.51660313  1
  Si  Si11  1  0.20689876  0.41669944  0.01660313  1
  Si  Si12  1  0.53300391  0.54091642  0.97598142  1
  Si  Si13  1  0.96699609  0.45908358  0.47598142  1
  Si  Si14  1  0.03300391  0.95908358  0.02401858  1
  Si  Si15  1  0.46699609  0.04091642  0.52401858  1
  N  N16  1  0.84188383  0.57929019  0.45481547  1
  N  N17  1  0.65811617  0.42070981  0.95481547  1
  N  N18  1  0.34188383  0.92070981  0.54518453  1
  N  N19  1  0.15811617  0.07929019  0.04518453  1
  N  N20  1  0.70644149  0.79449084  0.33580848  1
  N  N21  1  0.79355851  0.20550916  0.83580848  1
  N  N22  1  0.20644149  0.70550916  0.66419152  1
  N  N23  1  0.29355851  0.29449084  0.16419152  1
  N  N24  1  0.48159640  0.59307925  0.31517441  1
  N  N25  1  0.01840360  0.40692075  0.81517441  1
  N  N26  1  0.98159640  0.90692075  0.68482559  1
  N  N27  1  0.51840360  0.09307925  0.18482559  1
  N  N28  1  0.84995631  0.01001711  0.20324065  1
  N  N29  1  0.65004369  0.98998289  0.70324065  1
  N  N30  1  0.34995631  0.48998289  0.79675935  1
  N  N31  1  0.15004369  0.51001711  0.29675935  1
  N  N32  1  0.61023903  0.66749431  0.82864220  1
  N  N33  1  0.88976097  0.33250569  0.32864220  1
  N  N34  1  0.11023903  0.83250569  0.17135780  1
  N  N35  1  0.38976097  0.16749431  0.67135780  1
