# generated using pymatgen
data_Be(CoO2)2
_symmetry_space_group_name_H-M   'P 1'
_cell_length_a   8.99803460
_cell_length_b   9.30374110
_cell_length_c   2.89340037
_cell_angle_alpha   90.00001962
_cell_angle_beta   89.99999851
_cell_angle_gamma   89.99401863
_symmetry_Int_Tables_number   1
_chemical_formula_structural   Be(CoO2)2
_chemical_formula_sum   'Be4 Co8 O16'
_cell_volume   242.22212280
_cell_formula_units_Z   4
loop_
 _symmetry_equiv_pos_site_id
 _symmetry_equiv_pos_as_xyz
  1  'x, y, z'
loop_
 _atom_site_type_symbol
 _atom_site_label
 _atom_site_symmetry_multiplicity
 _atom_site_fract_x
 _atom_site_fract_y
 _atom_site_fract_z
 _atom_site_occupancy
  Be  Be0  1  0.14594558  0.38935501  0.75000017  1
  Be  Be1  1  0.35403347  0.88935469  0.25000013  1
  Be  Be2  1  0.64596931  0.11064970  0.74999964  1
  Be  Be3  1  0.85404292  0.61063453  0.24999920  1
  Co  Co4  1  0.12915755  0.70125606  0.75000006  1
  Co  Co5  1  0.11902100  0.07026209  0.75000004  1
  Co  Co6  1  0.38097906  0.57025842  0.25000028  1
  Co  Co7  1  0.37083993  0.20125523  0.25000025  1
  Co  Co8  1  0.62916223  0.79875086  0.74999966  1
  Co  Co9  1  0.61903049  0.42974211  0.75000003  1
  Co  Co10  1  0.88097681  0.92973966  0.25000038  1
  Co  Co11  1  0.87083681  0.29873810  0.24999968  1
  O  O12  1  0.01662138  0.88536717  0.75000039  1
  O  O13  1  0.97925917  0.37462871  0.74999925  1
  O  O14  1  0.26556965  0.74823236  0.24999963  1
  O  O15  1  0.24502158  0.52674832  0.75000021  1
  O  O16  1  0.25497846  0.02676855  0.25000008  1
  O  O17  1  0.23440440  0.24822365  0.74999935  1
  O  O18  1  0.52071851  0.87463627  0.24999962  1
  O  O19  1  0.48339527  0.38535883  0.25000008  1
  O  O20  1  0.51662561  0.61464405  0.75000033  1
  O  O21  1  0.47929179  0.12538023  0.75000000  1
  O  O22  1  0.76559195  0.75177424  0.25000022  1
  O  O23  1  0.74502146  0.97323368  0.74999984  1
  O  O24  1  0.75497708  0.47324368  0.25000017  1
  O  O25  1  0.73443069  0.25177004  0.74999999  1
  O  O26  1  0.02072567  0.62535818  0.25000043  1
  O  O27  1  0.98337219  0.11463558  0.25000090  1
