# generated using pymatgen
data_SrGe2(BO4)2
_symmetry_space_group_name_H-M   'P 1'
_cell_length_a   8.36263873
_cell_length_b   8.20150146
_cell_length_c   9.26722130
_cell_angle_alpha   90.00000000
_cell_angle_beta   90.00000000
_cell_angle_gamma   90.00000000
_symmetry_Int_Tables_number   1
_chemical_formula_structural   SrGe2(BO4)2
_chemical_formula_sum   'Sr4 Ge8 B8 O32'
_cell_volume   635.60343564
_cell_formula_units_Z   4
loop_
 _symmetry_equiv_pos_site_id
 _symmetry_equiv_pos_as_xyz
  1  'x, y, z'
loop_
 _atom_site_type_symbol
 _atom_site_label
 _atom_site_symmetry_multiplicity
 _atom_site_fract_x
 _atom_site_fract_y
 _atom_site_fract_z
 _atom_site_occupancy
  Sr  Sr0  1  0.88798515  0.25000000  0.07032363  1
  Sr  Sr1  1  0.38798515  0.25000000  0.42967637  1
  Sr  Sr2  1  0.11201485  0.75000000  0.92967637  1
  Sr  Sr3  1  0.61201485  0.75000000  0.57032363  1
  Ge  Ge4  1  0.55261267  0.94687034  0.18979608  1
  Ge  Ge5  1  0.05261267  0.55312966  0.31020392  1
  Ge  Ge6  1  0.44738733  0.44687034  0.81020392  1
  Ge  Ge7  1  0.94738733  0.05312966  0.68979608  1
  Ge  Ge8  1  0.44738733  0.05312966  0.81020392  1
  Ge  Ge9  1  0.94738733  0.44687034  0.68979608  1
  Ge  Ge10  1  0.55261267  0.55312966  0.18979608  1
  Ge  Ge11  1  0.05261267  0.94687034  0.31020392  1
  B  B12  1  0.74045379  0.91377981  0.91814484  1
  B  B13  1  0.24045379  0.58622019  0.58185516  1
  B  B14  1  0.25954621  0.41377981  0.08185516  1
  B  B15  1  0.75954621  0.08622019  0.41814484  1
  B  B16  1  0.25954621  0.08622019  0.08185516  1
  B  B17  1  0.75954621  0.41377981  0.41814484  1
  B  B18  1  0.74045379  0.58622019  0.91814484  1
  B  B19  1  0.24045379  0.91377981  0.58185516  1
  O  O20  1  0.80732750  0.75000000  0.93381262  1
  O  O21  1  0.30732750  0.75000000  0.56618738  1
  O  O22  1  0.19267250  0.25000000  0.06618738  1
  O  O23  1  0.69267250  0.25000000  0.43381262  1
  O  O24  1  0.60739635  0.91388177  0.81500024  1
  O  O25  1  0.10739635  0.58611823  0.68499976  1
  O  O26  1  0.39260365  0.41388177  0.18499976  1
  O  O27  1  0.89260365  0.08611823  0.31500024  1
  O  O28  1  0.39260365  0.08611823  0.18499976  1
  O  O29  1  0.89260365  0.41388177  0.31500024  1
  O  O30  1  0.60739635  0.58611823  0.81500024  1
  O  O31  1  0.10739635  0.91388177  0.68499976  1
  O  O32  1  0.87478509  0.02660666  0.86768521  1
  O  O33  1  0.37478509  0.47339334  0.63231479  1
  O  O34  1  0.12521491  0.52660666  0.13231479  1
  O  O35  1  0.62521491  0.97339334  0.36768521  1
  O  O36  1  0.12521491  0.97339334  0.13231479  1
  O  O37  1  0.62521491  0.52660666  0.36768521  1
  O  O38  1  0.87478509  0.47339334  0.86768521  1
  O  O39  1  0.37478509  0.02660666  0.63231479  1
  O  O40  1  0.69630018  0.99555540  0.05790757  1
  O  O41  1  0.19630018  0.50444460  0.44209243  1
  O  O42  1  0.30369982  0.49555540  0.94209243  1
  O  O43  1  0.80369982  0.00444460  0.55790757  1
  O  O44  1  0.30369982  0.00444460  0.94209243  1
  O  O45  1  0.80369982  0.49555540  0.55790757  1
  O  O46  1  0.69630018  0.50444460  0.05790757  1
  O  O47  1  0.19630018  0.99555540  0.44209243  1
  O  O48  1  0.46916212  0.75000000  0.17171207  1
  O  O49  1  0.96916212  0.75000000  0.32828793  1
  O  O50  1  0.53083788  0.25000000  0.82828793  1
  O  O51  1  0.03083788  0.25000000  0.67171207  1
