# generated using pymatgen
data_Sr3(BN2)2
_symmetry_space_group_name_H-M   'P 1'
_cell_length_a   9.67600500
_cell_length_b   7.42872000
_cell_length_c   7.68142124
_cell_angle_alpha   90.00000000
_cell_angle_beta   91.46395223
_cell_angle_gamma   90.00000000
_symmetry_Int_Tables_number   1
_chemical_formula_structural   Sr3(BN2)2
_chemical_formula_sum   'Sr12 B8 N16'
_cell_volume   551.96288667
_cell_formula_units_Z   4
loop_
 _symmetry_equiv_pos_site_id
 _symmetry_equiv_pos_as_xyz
  1  'x, y, z'
loop_
 _atom_site_type_symbol
 _atom_site_label
 _atom_site_symmetry_multiplicity
 _atom_site_fract_x
 _atom_site_fract_y
 _atom_site_fract_z
 _atom_site_occupancy
  Sr  Sr0  1  0.87434100  0.10961300  0.90647200  1
  Sr  Sr1  1  0.12565900  0.10961300  0.59352800  1
  Sr  Sr2  1  0.12565900  0.89038700  0.09352800  1
  Sr  Sr3  1  0.87434100  0.89038700  0.40647200  1
  Sr  Sr4  1  0.50000000  0.92788700  0.25000000  1
  Sr  Sr5  1  0.50000000  0.07211300  0.75000000  1
  Sr  Sr6  1  0.37434100  0.60961300  0.90647200  1
  Sr  Sr7  1  0.62565900  0.60961300  0.59352800  1
  Sr  Sr8  1  0.62565900  0.39038700  0.09352800  1
  Sr  Sr9  1  0.37434100  0.39038700  0.40647200  1
  Sr  Sr10  1  0.00000000  0.42788700  0.25000000  1
  Sr  Sr11  1  0.00000000  0.57211300  0.75000000  1
  B  B12  1  0.77144300  0.22828100  0.37927500  1
  B  B13  1  0.22855700  0.22828100  0.12072500  1
  B  B14  1  0.22855700  0.77171900  0.62072500  1
  B  B15  1  0.77144300  0.77171900  0.87927500  1
  B  B16  1  0.27144300  0.72828100  0.37927500  1
  B  B17  1  0.72855700  0.72828100  0.12072500  1
  B  B18  1  0.72855700  0.27171900  0.62072500  1
  B  B19  1  0.27144300  0.27171900  0.87927500  1
  N  N20  1  0.36968600  0.76326100  0.53848000  1
  N  N21  1  0.63031400  0.76326100  0.96152000  1
  N  N22  1  0.63031400  0.23673900  0.46152000  1
  N  N23  1  0.36968600  0.23673900  0.03848000  1
  N  N24  1  0.80944400  0.18730700  0.20683200  1
  N  N25  1  0.19055600  0.18730700  0.29316800  1
  N  N26  1  0.19055600  0.81269300  0.79316800  1
  N  N27  1  0.80944400  0.81269300  0.70683200  1
  N  N28  1  0.86968600  0.26326100  0.53848000  1
  N  N29  1  0.13031400  0.26326100  0.96152000  1
  N  N30  1  0.13031400  0.73673900  0.46152000  1
  N  N31  1  0.86968600  0.73673900  0.03848000  1
  N  N32  1  0.30944400  0.68730700  0.20683200  1
  N  N33  1  0.69055600  0.68730700  0.29316800  1
  N  N34  1  0.69055600  0.31269300  0.79316800  1
  N  N35  1  0.30944400  0.31269300  0.70683200  1
