# generated using pymatgen
data_Ba2CaSi4(BO7)2
_symmetry_space_group_name_H-M   'P 1'
_cell_length_a   9.39208394
_cell_length_b   9.39208394
_cell_length_c   9.39208394
_cell_angle_alpha   107.87627873
_cell_angle_beta   107.87627873
_cell_angle_gamma   112.71047917
_symmetry_Int_Tables_number   1
_chemical_formula_structural   Ba2CaSi4(BO7)2
_chemical_formula_sum   'Ba4 Ca2 Si8 B4 O28'
_cell_volume   636.23169122
_cell_formula_units_Z   2
loop_
 _symmetry_equiv_pos_site_id
 _symmetry_equiv_pos_as_xyz
  1  'x, y, z'
loop_
 _atom_site_type_symbol
 _atom_site_label
 _atom_site_symmetry_multiplicity
 _atom_site_fract_x
 _atom_site_fract_y
 _atom_site_fract_z
 _atom_site_occupancy
  Ba  Ba0  1  0.79396802  0.20391817  0.00000000  1
  Ba  Ba1  1  0.20391817  0.79396802  0.00000000  1
  Ba  Ba2  1  0.20603198  0.20603198  0.40995014  1
  Ba  Ba3  1  0.79608183  0.79608183  0.59004986  1
  Ca  Ca4  1  0.24412935  0.24412935  -0.00000000  1
  Ca  Ca5  1  0.75587065  0.75587065  -0.00000000  1
  Si  Si6  1  0.03512487  0.75084528  0.31344908  1
  Si  Si7  1  0.43739619  0.72167579  0.68655092  1
  Si  Si8  1  0.96487513  0.27832421  0.71572041  1
  Si  Si9  1  0.56260381  0.24915472  0.28427959  1
  Si  Si10  1  0.27832421  0.96487513  0.71572041  1
  Si  Si11  1  0.24915472  0.56260381  0.28427959  1
  Si  Si12  1  0.72167579  0.43739619  0.68655092  1
  Si  Si13  1  0.75084528  0.03512487  0.31344908  1
  B  B14  1  0.66711352  0.50000000  0.16711352  1
  B  B15  1  0.33288648  0.50000000  0.83288648  1
  B  B16  1  0.50000000  0.33288648  0.83288648  1
  B  B17  1  0.50000000  0.66711352  0.16711352  1
  O  O18  1  0.65980679  0.47198403  -0.00000000  1
  O  O19  1  0.47198403  0.65980679  0.00000000  1
  O  O20  1  0.34019321  0.34019321  0.81217724  1
  O  O21  1  0.52801597  0.52801597  0.18782276  1
  O  O22  1  0.84405110  0.65764451  0.30678571  1
  O  O23  1  0.35085880  0.53726540  0.69321429  1
  O  O24  1  0.15594890  0.46273460  0.81359341  1
  O  O25  1  0.64914120  0.34235549  0.18640659  1
  O  O26  1  0.46273460  0.15594890  0.81359341  1
  O  O27  1  0.34235549  0.64914120  0.18640659  1
  O  O28  1  0.53726540  0.35085880  0.69321429  1
  O  O29  1  0.65764451  0.84405110  0.30678571  1
  O  O30  1  0.04257979  0.84272848  0.19427733  1
  O  O31  1  0.64845115  0.84830246  0.80572267  1
  O  O32  1  0.95742021  0.15169754  0.80014869  1
  O  O33  1  0.35154885  0.15727152  0.19985131  1
  O  O34  1  0.15169754  0.95742021  0.80014869  1
  O  O35  1  0.15727152  0.35154885  0.19985131  1
  O  O36  1  0.84830246  0.64845115  0.80572267  1
  O  O37  1  0.84272848  0.04257979  0.19427733  1
  O  O38  1  0.17771777  0.91204289  0.51263950  1
  O  O39  1  0.39940339  0.66507827  0.48736050  1
  O  O40  1  0.82228223  0.33492173  0.73432512  1
  O  O41  1  0.60059661  0.08795711  0.26567488  1
  O  O42  1  0.33492173  0.82228223  0.73432512  1
  O  O43  1  0.08795711  0.60059661  0.26567488  1
  O  O44  1  0.66507827  0.39940339  0.48736050  1
  O  O45  1  0.91204289  0.17771777  0.51263950  1
