# generated using pymatgen
data_PrZn2
_symmetry_space_group_name_H-M   'P 1'
_cell_length_a   4.64244192
_cell_length_b   5.81105841
_cell_length_c   5.81105841
_cell_angle_alpha   81.06176536
_cell_angle_beta   66.45626341
_cell_angle_gamma   66.45626341
_symmetry_Int_Tables_number   1
_chemical_formula_structural   PrZn2
_chemical_formula_sum   'Pr2 Zn4'
_cell_volume   131.75240143
_cell_formula_units_Z   2
loop_
 _symmetry_equiv_pos_site_id
 _symmetry_equiv_pos_as_xyz
  1  'x, y, z'
loop_
 _atom_site_type_symbol
 _atom_site_label
 _atom_site_symmetry_multiplicity
 _atom_site_fract_x
 _atom_site_fract_y
 _atom_site_fract_z
 _atom_site_occupancy
  Pr  Pr0  1  0.75000000  0.70943621  0.79056379  1
  Pr  Pr1  1  0.25000000  0.29056379  0.20943621  1
  Zn  Zn2  1  0.55677606  0.27729228  0.60915559  1
  Zn  Zn3  1  0.44322394  0.72270772  0.39084441  1
  Zn  Zn4  1  0.05677606  0.10915559  0.77729228  1
  Zn  Zn5  1  0.94322394  0.89084441  0.22270772  1
