# generated using pymatgen
data_V4Co2N
_symmetry_space_group_name_H-M   'P 1'
_cell_length_a   7.64792523
_cell_length_b   7.64792523
_cell_length_c   7.64792523
_cell_angle_alpha   60.00000000
_cell_angle_beta   60.00000000
_cell_angle_gamma   60.00000000
_symmetry_Int_Tables_number   1
_chemical_formula_structural   V4Co2N
_chemical_formula_sum   'V16 Co8 N4'
_cell_volume   316.31217022
_cell_formula_units_Z   4
loop_
 _symmetry_equiv_pos_site_id
 _symmetry_equiv_pos_as_xyz
  1  'x, y, z'
loop_
 _atom_site_type_symbol
 _atom_site_label
 _atom_site_symmetry_multiplicity
 _atom_site_fract_x
 _atom_site_fract_y
 _atom_site_fract_z
 _atom_site_occupancy
  V  V0  1  -0.00000000  -0.00000000  0.50000000  1
  V  V1  1  -0.00000000  0.50000000  0.00000000  1
  V  V2  1  0.50000000  -0.00000000  0.00000000  1
  V  V3  1  -0.00000000  -0.00000000  0.00000000  1
  V  V4  1  0.44144390  0.80855610  0.80855610  1
  V  V5  1  0.80855610  0.44144390  0.44144390  1
  V  V6  1  0.80855610  0.44144390  0.80855610  1
  V  V7  1  0.44144390  0.80855610  0.44144390  1
  V  V8  1  0.80855610  0.80855610  0.44144390  1
  V  V9  1  0.44144390  0.44144390  0.80855610  1
  V  V10  1  0.55855610  0.19144390  0.19144390  1
  V  V11  1  0.19144390  0.55855610  0.55855610  1
  V  V12  1  0.19144390  0.55855610  0.19144390  1
  V  V13  1  0.55855610  0.19144390  0.55855610  1
  V  V14  1  0.19144390  0.19144390  0.55855610  1
  V  V15  1  0.55855610  0.55855610  0.19144390  1
  Co  Co16  1  0.20958639  0.20958639  0.87124082  1
  Co  Co17  1  0.20958639  0.87124082  0.20958639  1
  Co  Co18  1  0.87124082  0.20958639  0.20958639  1
  Co  Co19  1  0.20958639  0.20958639  0.20958639  1
  Co  Co20  1  0.79041361  0.79041361  0.12875918  1
  Co  Co21  1  0.79041361  0.12875918  0.79041361  1
  Co  Co22  1  0.12875918  0.79041361  0.79041361  1
  Co  Co23  1  0.79041361  0.79041361  0.79041361  1
  N  N24  1  0.50000000  0.50000000  0.00000000  1
  N  N25  1  0.50000000  -0.00000000  0.50000000  1
  N  N26  1  -0.00000000  0.50000000  0.50000000  1
  N  N27  1  0.50000000  0.50000000  0.50000000  1
