# generated using pymatgen
data_BaBAsF10
_symmetry_space_group_name_H-M   'P 1'
_cell_length_a   6.47741729
_cell_length_b   10.73020018
_cell_length_c   12.14971606
_cell_angle_alpha   90.00000000
_cell_angle_beta   90.00000000
_cell_angle_gamma   90.00000000
_symmetry_Int_Tables_number   1
_chemical_formula_structural   BaBAsF10
_chemical_formula_sum   'Ba4 B4 As4 F40'
_cell_volume   844.45367272
_cell_formula_units_Z   4
loop_
 _symmetry_equiv_pos_site_id
 _symmetry_equiv_pos_as_xyz
  1  'x, y, z'
loop_
 _atom_site_type_symbol
 _atom_site_label
 _atom_site_symmetry_multiplicity
 _atom_site_fract_x
 _atom_site_fract_y
 _atom_site_fract_z
 _atom_site_occupancy
  Ba  Ba0  1  0.25000000  0.23451482  0.88861446  1
  Ba  Ba1  1  0.25000000  0.73451482  0.61138554  1
  Ba  Ba2  1  0.75000000  0.76548518  0.11138554  1
  Ba  Ba3  1  0.75000000  0.26548518  0.38861446  1
  B  B4  1  0.25000000  0.85811649  0.92897391  1
  B  B5  1  0.25000000  0.35811649  0.57102609  1
  B  B6  1  0.75000000  0.14188351  0.07102609  1
  B  B7  1  0.75000000  0.64188351  0.42897391  1
  As  As8  1  0.75000000  0.51782642  0.80152215  1
  As  As9  1  0.75000000  0.01782642  0.69847785  1
  As  As10  1  0.25000000  0.48217358  0.19847785  1
  As  As11  1  0.25000000  0.98217358  0.30152215  1
  F  F12  1  0.42729734  0.81553948  0.98546575  1
  F  F13  1  0.07270266  0.31553948  0.51453425  1
  F  F14  1  0.92729734  0.18446052  0.01453425  1
  F  F15  1  0.57270266  0.68446052  0.48546575  1
  F  F16  1  0.57270266  0.18446052  0.01453425  1
  F  F17  1  0.92729734  0.68446052  0.48546575  1
  F  F18  1  0.07270266  0.81553948  0.98546575  1
  F  F19  1  0.42729734  0.31553948  0.51453425  1
  F  F20  1  0.25000000  0.98971447  0.92548104  1
  F  F21  1  0.25000000  0.48971447  0.57451896  1
  F  F22  1  0.75000000  0.01028553  0.07451896  1
  F  F23  1  0.75000000  0.51028553  0.42548104  1
  F  F24  1  0.25000000  0.81101976  0.82022004  1
  F  F25  1  0.25000000  0.31101976  0.67977996  1
  F  F26  1  0.75000000  0.18898024  0.17977996  1
  F  F27  1  0.75000000  0.68898024  0.32022004  1
  F  F28  1  0.75000000  0.61064511  0.92283675  1
  F  F29  1  0.75000000  0.11064511  0.57716325  1
  F  F30  1  0.25000000  0.38935489  0.07716325  1
  F  F31  1  0.25000000  0.88935489  0.42283675  1
  F  F32  1  0.55597324  0.61596901  0.74506010  1
  F  F33  1  0.94402676  0.11596901  0.75493990  1
  F  F34  1  0.05597324  0.38403099  0.25493990  1
  F  F35  1  0.44402676  0.88403099  0.24506010  1
  F  F36  1  0.44402676  0.38403099  0.25493990  1
  F  F37  1  0.05597324  0.88403099  0.24506010  1
  F  F38  1  0.94402676  0.61596901  0.74506010  1
  F  F39  1  0.55597324  0.11596901  0.75493990  1
  F  F40  1  0.75000000  0.42533356  0.68357798  1
  F  F41  1  0.75000000  0.92533356  0.81642202  1
  F  F42  1  0.25000000  0.57466644  0.31642202  1
  F  F43  1  0.25000000  0.07466644  0.18357798  1
  F  F44  1  0.94466325  0.42236568  0.86192114  1
  F  F45  1  0.55533675  0.92236568  0.63807886  1
  F  F46  1  0.44466325  0.57763432  0.13807886  1
  F  F47  1  0.05533675  0.07763432  0.36192114  1
  F  F48  1  0.05533675  0.57763432  0.13807886  1
  F  F49  1  0.44466325  0.07763432  0.36192114  1
  F  F50  1  0.55533675  0.42236568  0.86192114  1
  F  F51  1  0.94466325  0.92236568  0.63807886  1
