# generated using pymatgen
data_Zr5Ge3
_symmetry_space_group_name_H-M   'P 1'
_cell_length_a   8.10713285
_cell_length_b   8.10713285
_cell_length_c   5.64891208
_cell_angle_alpha   90.00000000
_cell_angle_beta   90.00000000
_cell_angle_gamma   119.99999997
_symmetry_Int_Tables_number   1
_chemical_formula_structural   Zr5Ge3
_chemical_formula_sum   'Zr10 Ge6'
_cell_volume   321.53631239
_cell_formula_units_Z   2
loop_
 _symmetry_equiv_pos_site_id
 _symmetry_equiv_pos_as_xyz
  1  'x, y, z'
loop_
 _atom_site_type_symbol
 _atom_site_label
 _atom_site_symmetry_multiplicity
 _atom_site_fract_x
 _atom_site_fract_y
 _atom_site_fract_z
 _atom_site_occupancy
  Ge  Ge0  1  0.38850319  0.00000000  0.75000000  1
  Ge  Ge1  1  0.38850319  0.38850319  0.25000000  1
  Ge  Ge2  1  0.00000000  0.61149681  0.25000000  1
  Ge  Ge3  1  0.00000000  0.38850319  0.75000000  1
  Ge  Ge4  1  0.61149681  0.61149681  0.75000000  1
  Ge  Ge5  1  0.61149681  0.00000000  0.25000000  1
  Zr  Zr6  1  0.00000000  0.74623010  0.75000000  1
  Zr  Zr7  1  0.00000000  0.25376990  0.25000000  1
  Zr  Zr8  1  0.74623010  0.74623010  0.25000000  1
  Zr  Zr9  1  0.74623010  0.00000000  0.75000000  1
  Zr  Zr10  1  0.25376990  0.25376990  0.75000000  1
  Zr  Zr11  1  0.25376990  0.00000000  0.25000000  1
  Zr  Zr12  1  0.33333333  0.66666667  0.50000000  1
  Zr  Zr13  1  0.66666667  0.33333333  0.00000000  1
  Zr  Zr14  1  0.66666667  0.33333333  0.50000000  1
  Zr  Zr15  1  0.33333333  0.66666667  0.00000000  1
