# generated using pymatgen
data_Li3AlN2
_symmetry_space_group_name_H-M   'P 1'
_cell_length_a   8.24513117
_cell_length_b   8.24513117
_cell_length_c   8.24513117
_cell_angle_alpha   109.47122065
_cell_angle_beta   109.47122065
_cell_angle_gamma   109.47122063
_symmetry_Int_Tables_number   1
_chemical_formula_structural   Li3AlN2
_chemical_formula_sum   'Li24 Al8 N16'
_cell_volume   431.49008119
_cell_formula_units_Z   8
loop_
 _symmetry_equiv_pos_site_id
 _symmetry_equiv_pos_as_xyz
  1  'x, y, z'
loop_
 _atom_site_type_symbol
 _atom_site_label
 _atom_site_symmetry_multiplicity
 _atom_site_fract_x
 _atom_site_fract_y
 _atom_site_fract_z
 _atom_site_occupancy
  Li  Li0  1  0.98620567  0.45872023  0.22348837  1
  Li  Li1  1  0.73523187  0.76271730  0.27651163  1
  Li  Li2  1  0.76476813  0.04127977  0.02748544  1
  Li  Li3  1  0.73728270  0.47251456  0.51379433  1
  Li  Li4  1  0.47251456  0.51379433  0.73728270  1
  Li  Li5  1  0.22348837  0.98620567  0.45872023  1
  Li  Li6  1  0.76271730  0.27651163  0.73523187  1
  Li  Li7  1  0.02748544  0.76476813  0.04127977  1
  Li  Li8  1  0.45872023  0.22348837  0.98620567  1
  Li  Li9  1  0.27651163  0.73523187  0.76271730  1
  Li  Li10  1  0.04127977  0.02748544  0.76476813  1
  Li  Li11  1  0.51379433  0.73728270  0.47251456  1
  Li  Li12  1  0.01379433  0.54127977  0.77651163  1
  Li  Li13  1  0.26476813  0.23728270  0.72348837  1
  Li  Li14  1  0.23523187  0.95872023  0.97251456  1
  Li  Li15  1  0.26271730  0.52748544  0.48620567  1
  Li  Li16  1  0.52748544  0.48620567  0.26271730  1
  Li  Li17  1  0.77651163  0.01379433  0.54127977  1
  Li  Li18  1  0.23728270  0.72348837  0.26476813  1
  Li  Li19  1  0.48620567  0.26271730  0.52748544  1
  Li  Li20  1  0.54127977  0.77651163  0.01379433  1
  Li  Li21  1  0.72348837  0.26476813  0.23728270  1
  Li  Li22  1  0.95872023  0.97251456  0.23523187  1
  Li  Li23  1  0.97251456  0.23523187  0.95872023  1
  N  N24  1  0.96606195  0.71606195  0.25000000  1
  N  N25  1  0.00000000  0.50000000  0.50000000  1
  N  N26  1  0.50000000  0.00000000  0.50000000  1
  N  N27  1  0.50000000  0.50000000  0.00000000  1
  N  N28  1  0.25000000  0.46606195  0.21606195  1
  N  N29  1  0.03393805  0.28393805  0.75000000  1
  N  N30  1  0.28393805  0.75000000  0.03393805  1
  N  N31  1  0.46606195  0.21606195  0.25000000  1
  N  N32  1  0.25000000  0.96606195  0.71606195  1
  N  N33  1  0.78393805  0.75000000  0.53393805  1
  N  N34  1  0.53393805  0.78393805  0.75000000  1
  N  N35  1  0.71606195  0.25000000  0.96606195  1
  N  N36  1  0.21606195  0.25000000  0.46606195  1
  N  N37  1  0.75000000  0.53393805  0.78393805  1
  N  N38  1  0.75000000  0.03393805  0.28393805  1
  N  N39  1  0.00000000  0.00000000  0.00000000  1
  Al  Al40  1  0.23021557  0.23021557  0.23021557  1
  Al  Al41  1  0.00000000  0.26978443  0.50000000  1
  Al  Al42  1  0.50000000  0.00000000  0.26978443  1
  Al  Al43  1  0.26978443  0.50000000  0.00000000  1
  Al  Al44  1  0.76978443  0.76978443  0.76978443  1
  Al  Al45  1  0.00000000  0.73021557  0.50000000  1
  Al  Al46  1  0.50000000  0.00000000  0.73021557  1
  Al  Al47  1  0.73021557  0.50000000  0.00000000  1
