# generated using pymatgen
data_Li2CrSiO4
_symmetry_space_group_name_H-M   'P 1'
_cell_length_a   7.11224728
_cell_length_b   4.75061025
_cell_length_c   10.62415279
_cell_angle_alpha   90.00000000
_cell_angle_beta   91.46630647
_cell_angle_gamma   90.00000000
_symmetry_Int_Tables_number   1
_chemical_formula_structural   Li2CrSiO4
_chemical_formula_sum   'Li8 Cr4 Si4 O16'
_cell_volume   358.84617569
_cell_formula_units_Z   4
loop_
 _symmetry_equiv_pos_site_id
 _symmetry_equiv_pos_as_xyz
  1  'x, y, z'
loop_
 _atom_site_type_symbol
 _atom_site_label
 _atom_site_symmetry_multiplicity
 _atom_site_fract_x
 _atom_site_fract_y
 _atom_site_fract_z
 _atom_site_occupancy
  Li  Li0  1  0.99984939  0.30815476  0.58287326  1
  Li  Li1  1  0.99984939  0.19184524  0.08287326  1
  Li  Li2  1  0.19079385  0.81812437  0.67212399  1
  Li  Li3  1  0.19079385  0.68187563  0.17212399  1
  Li  Li4  1  0.80920615  0.31812437  0.82787601  1
  Li  Li5  1  0.80920615  0.18187563  0.32787601  1
  Li  Li6  1  0.00015061  0.80815476  0.91712674  1
  Li  Li7  1  0.00015061  0.69184524  0.41712674  1
  Cr  Cr8  1  0.50404454  0.78049933  0.88616965  1
  Cr  Cr9  1  0.50404454  0.71950067  0.38616965  1
  Cr  Cr10  1  0.49595546  0.28049933  0.61383035  1
  Cr  Cr11  1  0.49595546  0.21950067  0.11383035  1
  Si  Si12  1  0.23315834  0.32390986  0.83570706  1
  Si  Si13  1  0.23315834  0.17609014  0.33570606  1
  Si  Si14  1  0.76684166  0.82390986  0.66429294  1
  Si  Si15  1  0.76684166  0.67609014  0.16429394  1
  O  O16  1  0.04658183  0.21278246  0.90410529  1
  O  O17  1  0.04658183  0.28721754  0.40410529  1
  O  O18  1  0.23586353  0.67245322  0.84431249  1
  O  O19  1  0.23586353  0.82754678  0.34431249  1
  O  O20  1  0.23187745  0.23223238  0.68412452  1
  O  O21  1  0.23187745  0.26776762  0.18412452  1
  O  O22  1  0.44406222  0.22701380  0.89748892  1
  O  O23  1  0.44406222  0.27298620  0.39748892  1
  O  O24  1  0.55593778  0.72701380  0.60251108  1
  O  O25  1  0.55593778  0.77298620  0.10251108  1
  O  O26  1  0.76812255  0.73223238  0.81587548  1
  O  O27  1  0.76812255  0.76776762  0.31587548  1
  O  O28  1  0.76413647  0.17245322  0.65568751  1
  O  O29  1  0.76413647  0.32754678  0.15568751  1
  O  O30  1  0.95341817  0.71278246  0.59589471  1
  O  O31  1  0.95341817  0.78721754  0.09589471  1
