# generated using pymatgen
data_LiZnAsO4
_symmetry_space_group_name_H-M   'P 1'
_cell_length_a   8.86543331
_cell_length_b   8.86543332
_cell_length_c   8.86543331
_cell_angle_alpha   107.85188177
_cell_angle_beta   107.85188180
_cell_angle_gamma   107.85188175
_symmetry_Int_Tables_number   1
_chemical_formula_structural   LiZnAsO4
_chemical_formula_sum   'Li6 Zn6 As6 O24'
_cell_volume   566.26471607
_cell_formula_units_Z   6
loop_
 _symmetry_equiv_pos_site_id
 _symmetry_equiv_pos_as_xyz
  1  'x, y, z'
loop_
 _atom_site_type_symbol
 _atom_site_label
 _atom_site_symmetry_multiplicity
 _atom_site_fract_x
 _atom_site_fract_y
 _atom_site_fract_z
 _atom_site_occupancy
  Li  Li0  1  0.15859396  0.93348757  0.33449907  1
  Li  Li1  1  0.44863660  0.61947795  0.85349227  1
  Li  Li2  1  0.61947795  0.85349227  0.44863660  1
  Li  Li3  1  0.85349227  0.44863660  0.61947795  1
  Li  Li4  1  0.93348757  0.33449907  0.15859396  1
  Li  Li5  1  0.33449907  0.15859396  0.93348757  1
  O  O6  1  0.40813418  0.09315974  0.41815209  1
  O  O7  1  0.09315974  0.41815209  0.40813418  1
  O  O8  1  0.41815209  0.40813418  0.09315974  1
  O  O9  1  0.75155611  0.08619962  0.03566611  1
  O  O10  1  0.08619962  0.03566611  0.75155611  1
  O  O11  1  0.03566611  0.75155611  0.08619962  1
  O  O12  1  0.02494999  0.69254326  0.70600126  1
  O  O13  1  0.70600126  0.02494999  0.69254326  1
  O  O14  1  0.63456059  0.98753787  0.30806244  1
  O  O15  1  0.69254326  0.70600126  0.02494999  1
  O  O16  1  0.30806244  0.63456059  0.98753787  1
  O  O17  1  0.98753787  0.30806244  0.63456059  1
  O  O18  1  0.37186346  0.66432878  0.33030201  1
  O  O19  1  0.33030201  0.37186346  0.66432878  1
  O  O20  1  0.66432878  0.33030201  0.37186346  1
  O  O21  1  0.07643073  0.36510585  0.02923770  1
  O  O22  1  0.02923770  0.07643073  0.36510585  1
  O  O23  1  0.36510585  0.02923770  0.07643073  1
  O  O24  1  0.80986128  0.48053750  0.12866343  1
  O  O25  1  0.12866343  0.80986128  0.48053750  1
  O  O26  1  0.48053750  0.12866343  0.80986128  1
  O  O27  1  0.78592680  0.74081868  0.45348848  1
  O  O28  1  0.45348848  0.78592680  0.74081868  1
  O  O29  1  0.74081868  0.45348848  0.78592680  1
  Zn  Zn30  1  0.49483721  0.26026474  0.66514695  1
  Zn  Zn31  1  0.26026474  0.66514695  0.49483721  1
  Zn  Zn32  1  0.66514695  0.49483721  0.26026474  1
  Zn  Zn33  1  0.78051637  0.95679251  0.18207927  1
  Zn  Zn34  1  0.95679251  0.18207927  0.78051637  1
  Zn  Zn35  1  0.18207927  0.78051637  0.95679251  1
  As  As36  1  0.52001682  0.11181140  0.29132966  1
  As  As37  1  0.11181140  0.29132966  0.52001682  1
  As  As38  1  0.29132966  0.52001682  0.11181140  1
  As  As39  1  0.82210544  0.59694242  0.00558182  1
  As  As40  1  0.59694242  0.00558182  0.82210544  1
  As  As41  1  0.00558182  0.82210544  0.59694242  1
