# generated using pymatgen
data_K7TaAs4
_symmetry_space_group_name_H-M   'P 1'
_cell_length_a   8.41874936
_cell_length_b   9.24858581
_cell_length_c   10.37117819
_cell_angle_alpha   90.00000000
_cell_angle_beta   90.00000000
_cell_angle_gamma   90.00000000
_symmetry_Int_Tables_number   1
_chemical_formula_structural   K7TaAs4
_chemical_formula_sum   'K14 Ta2 As8'
_cell_volume   807.51575893
_cell_formula_units_Z   2
loop_
 _symmetry_equiv_pos_site_id
 _symmetry_equiv_pos_as_xyz
  1  'x, y, z'
loop_
 _atom_site_type_symbol
 _atom_site_label
 _atom_site_symmetry_multiplicity
 _atom_site_fract_x
 _atom_site_fract_y
 _atom_site_fract_z
 _atom_site_occupancy
  K  K0  1  0.70947880  0.83355394  0.28280099  1
  K  K1  1  0.20947880  0.16644606  0.21719901  1
  K  K2  1  0.20947880  0.16644606  0.78280099  1
  K  K3  1  0.70947880  0.83355394  0.71719901  1
  K  K4  1  0.87200180  0.46588777  0.28837036  1
  K  K5  1  0.37200180  0.53411223  0.21162964  1
  K  K6  1  0.37200180  0.53411223  0.78837036  1
  K  K7  1  0.87200180  0.46588777  0.71162964  1
  K  K8  1  0.16183200  0.66140930  0.50000000  1
  K  K9  1  0.66183200  0.33859070  0.00000000  1
  K  K10  1  0.87762113  0.03431973  0.00000000  1
  K  K11  1  0.37762113  0.96568027  0.50000000  1
  K  K12  1  0.39059890  0.89170479  0.00000000  1
  K  K13  1  0.89059890  0.10829521  0.50000000  1
  As  As14  1  0.70107513  0.68209104  0.00000000  1
  As  As15  1  0.20107513  0.31790896  0.50000000  1
  As  As16  1  0.09382190  0.80620637  0.20146091  1
  As  As17  1  0.59382190  0.19379363  0.29853909  1
  As  As18  1  0.59382190  0.19379363  0.70146091  1
  As  As19  1  0.09382190  0.80620637  0.79853909  1
  As  As20  1  0.57790454  0.59024041  0.50000000  1
  As  As21  1  0.07790454  0.40975959  0.00000000  1
  Ta  Ta22  1  0.99871331  0.67311920  0.00000000  1
  Ta  Ta23  1  0.49871331  0.32688080  0.50000000  1
