# generated using pymatgen
data_KEuPO4
_symmetry_space_group_name_H-M   'P 1'
_cell_length_a   5.62252851
_cell_length_b   7.42693305
_cell_length_c   9.77675557
_cell_angle_alpha   90.00000000
_cell_angle_beta   90.00000000
_cell_angle_gamma   90.00000000
_symmetry_Int_Tables_number   1
_chemical_formula_structural   KEuPO4
_chemical_formula_sum   'K4 Eu4 P4 O16'
_cell_volume   408.25915536
_cell_formula_units_Z   4
loop_
 _symmetry_equiv_pos_site_id
 _symmetry_equiv_pos_as_xyz
  1  'x, y, z'
loop_
 _atom_site_type_symbol
 _atom_site_label
 _atom_site_symmetry_multiplicity
 _atom_site_fract_x
 _atom_site_fract_y
 _atom_site_fract_z
 _atom_site_occupancy
  O  O0  1  0.25000000  0.80809653  0.43762991  1
  O  O1  1  0.75000000  0.19190347  0.56237009  1
  O  O2  1  0.25000000  0.30809653  0.06237009  1
  O  O3  1  0.75000000  0.69190347  0.93762991  1
  O  O4  1  0.25000000  0.51630565  0.57289698  1
  O  O5  1  0.75000000  0.48369435  0.42710302  1
  O  O6  1  0.25000000  0.01630565  0.92710302  1
  O  O7  1  0.75000000  0.98369435  0.07289698  1
  O  O8  1  0.02220577  0.28624453  0.83660460  1
  O  O9  1  0.52220577  0.71375547  0.16339540  1
  O  O10  1  0.47779423  0.78624453  0.66339540  1
  O  O11  1  0.97779423  0.21375547  0.33660460  1
  O  O12  1  0.02220577  0.78624453  0.66339540  1
  O  O13  1  0.52220577  0.21375547  0.33660460  1
  O  O14  1  0.47779423  0.28624453  0.83660460  1
  O  O15  1  0.97779423  0.71375547  0.16339540  1
  P  P16  1  0.25000000  0.22490080  0.91510877  1
  P  P17  1  0.75000000  0.77509920  0.08489123  1
  P  P18  1  0.75000000  0.27509920  0.41510877  1
  P  P19  1  0.25000000  0.72490080  0.58489123  1
  K  K20  1  0.25000000  0.65754808  0.91839871  1
  K  K21  1  0.25000000  0.15754808  0.58160129  1
  K  K22  1  0.75000000  0.34245192  0.08160129  1
  K  K23  1  0.75000000  0.84245192  0.41839871  1
  Eu  Eu24  1  0.25000000  0.50286782  0.30510149  1
  Eu  Eu25  1  0.75000000  0.49713218  0.69489851  1
  Eu  Eu26  1  0.25000000  0.00286782  0.19489851  1
  Eu  Eu27  1  0.75000000  0.99713218  0.80510149  1
