# generated using pymatgen
data_Ce3SiAgSe7
_symmetry_space_group_name_H-M   'P 1'
_cell_length_a   10.79232739
_cell_length_b   10.79232739
_cell_length_c   6.06507083
_cell_angle_alpha   90.00000000
_cell_angle_beta   90.00000000
_cell_angle_gamma   120.00000003
_symmetry_Int_Tables_number   1
_chemical_formula_structural   Ce3SiAgSe7
_chemical_formula_sum   'Ce6 Si2 Ag2 Se14'
_cell_volume   611.78205152
_cell_formula_units_Z   2
loop_
 _symmetry_equiv_pos_site_id
 _symmetry_equiv_pos_as_xyz
  1  'x, y, z'
loop_
 _atom_site_type_symbol
 _atom_site_label
 _atom_site_symmetry_multiplicity
 _atom_site_fract_x
 _atom_site_fract_y
 _atom_site_fract_z
 _atom_site_occupancy
  Si  Si0  1  0.33333333  0.66666667  0.33095055  1
  Si  Si1  1  0.66666667  0.33333333  0.83095055  1
  Se  Se2  1  0.52234881  0.10859348  0.98008577  1
  Se  Se3  1  0.47765119  0.89140652  0.48008577  1
  Se  Se4  1  0.10859348  0.58624467  0.48008577  1
  Se  Se5  1  0.58624467  0.47765119  0.98008577  1
  Se  Se6  1  0.09396922  0.26956941  0.22671378  1
  Se  Se7  1  0.82439981  0.09396922  0.72671378  1
  Se  Se8  1  0.41375533  0.52234881  0.48008577  1
  Se  Se9  1  0.89140652  0.41375533  0.98008577  1
  Se  Se10  1  0.33333333  0.66666667  0.95613681  1
  Se  Se11  1  0.66666667  0.33333333  0.45613681  1
  Se  Se12  1  0.90603078  0.73043059  0.72671378  1
  Se  Se13  1  0.17560019  0.90603078  0.22671378  1
  Se  Se14  1  0.73043059  0.82439981  0.22671378  1
  Se  Se15  1  0.26956941  0.17560019  0.72671378  1
  Ag  Ag16  1  0.00000000  0.00000000  0.18499455  1
  Ag  Ag17  1  0.00000000  0.00000000  0.68499455  1
  Ce  Ce18  1  0.12555762  0.35689959  0.74007649  1
  Ce  Ce19  1  0.76865803  0.12555762  0.24007649  1
  Ce  Ce20  1  0.35689959  0.23134197  0.24007649  1
  Ce  Ce21  1  0.64310041  0.76865803  0.74007649  1
  Ce  Ce22  1  0.23134197  0.87444238  0.74007649  1
  Ce  Ce23  1  0.87444238  0.64310041  0.24007649  1
