# generated using pymatgen
data_Nd3SiAgSe7
_symmetry_space_group_name_H-M   'P 1'
_cell_length_a   10.76643329
_cell_length_b   10.76643329
_cell_length_c   6.07552843
_cell_angle_alpha   90.00000000
_cell_angle_beta   90.00000000
_cell_angle_gamma   120.00000003
_symmetry_Int_Tables_number   1
_chemical_formula_structural   Nd3SiAgSe7
_chemical_formula_sum   'Nd6 Si2 Ag2 Se14'
_cell_volume   609.89966759
_cell_formula_units_Z   2
loop_
 _symmetry_equiv_pos_site_id
 _symmetry_equiv_pos_as_xyz
  1  'x, y, z'
loop_
 _atom_site_type_symbol
 _atom_site_label
 _atom_site_symmetry_multiplicity
 _atom_site_fract_x
 _atom_site_fract_y
 _atom_site_fract_z
 _atom_site_occupancy
  Si  Si0  1  0.33333333  0.66666667  0.37650980  1
  Si  Si1  1  0.66666667  0.33333333  0.87650980  1
  Se  Se2  1  0.89128542  0.47795932  0.72515248  1
  Se  Se3  1  0.10871458  0.52204068  0.22515248  1
  Se  Se4  1  0.47795932  0.58667390  0.22515248  1
  Se  Se5  1  0.58667390  0.10871458  0.72515248  1
  Se  Se6  1  0.09581291  0.82472476  0.48350285  1
  Se  Se7  1  0.27108816  0.09581291  0.98350285  1
  Se  Se8  1  0.41332610  0.89128542  0.22515248  1
  Se  Se9  1  0.52204068  0.41332610  0.72515248  1
  Se  Se10  1  0.33333333  0.66666667  0.75070910  1
  Se  Se11  1  0.66666667  0.33333333  0.25070910  1
  Se  Se12  1  0.90418709  0.17527524  0.98350285  1
  Se  Se13  1  0.72891184  0.90418709  0.48350285  1
  Se  Se14  1  0.17527524  0.27108816  0.48350285  1
  Se  Se15  1  0.82472476  0.72891184  0.98350285  1
  Ag  Ag16  1  0.00000000  0.00000000  0.51667091  1
  Ag  Ag17  1  0.00000000  0.00000000  0.01667091  1
  Nd  Nd18  1  0.35736529  0.12640428  0.46650139  1
  Nd  Nd19  1  0.23096102  0.35736529  0.96650139  1
  Nd  Nd20  1  0.12640428  0.76903898  0.96650139  1
  Nd  Nd21  1  0.87359572  0.23096102  0.46650139  1
  Nd  Nd22  1  0.76903898  0.64263471  0.46650139  1
  Nd  Nd23  1  0.64263471  0.87359572  0.96650139  1
