# generated using pymatgen
data_BaCaAlF7
_symmetry_space_group_name_H-M   'P 1'
_cell_length_a   5.43845097
_cell_length_b   5.46624715
_cell_length_c   19.08005418
_cell_angle_alpha   90.00000000
_cell_angle_beta   92.41077205
_cell_angle_gamma   90.00000000
_symmetry_Int_Tables_number   1
_chemical_formula_structural   BaCaAlF7
_chemical_formula_sum   'Ba4 Ca4 Al4 F28'
_cell_volume   566.70825394
_cell_formula_units_Z   4
loop_
 _symmetry_equiv_pos_site_id
 _symmetry_equiv_pos_as_xyz
  1  'x, y, z'
loop_
 _atom_site_type_symbol
 _atom_site_label
 _atom_site_symmetry_multiplicity
 _atom_site_fract_x
 _atom_site_fract_y
 _atom_site_fract_z
 _atom_site_occupancy
  F  F0  1  0.77783826  0.04416222  0.93456241  1
  F  F1  1  0.72216174  0.04416222  0.56543759  1
  F  F2  1  0.22216174  0.95583778  0.06543759  1
  F  F3  1  0.27783826  0.95583778  0.43456241  1
  F  F4  1  0.51541267  0.02920316  0.17500501  1
  F  F5  1  0.98458733  0.02920316  0.32499499  1
  F  F6  1  0.48458733  0.97079684  0.82499499  1
  F  F7  1  0.01541267  0.97079684  0.67500501  1
  F  F8  1  0.55210265  0.28225080  0.06049374  1
  F  F9  1  0.94789735  0.28225080  0.43950626  1
  F  F10  1  0.44789735  0.71774920  0.93950626  1
  F  F11  1  0.05210265  0.71774920  0.56049374  1
  F  F12  1  0.59883986  0.59322316  0.56457530  1
  F  F13  1  0.90116014  0.59322316  0.93542470  1
  F  F14  1  0.40116014  0.40677684  0.43542470  1
  F  F15  1  0.09883986  0.40677684  0.06457530  1
  F  F16  1  0.56481727  0.86189822  0.68110929  1
  F  F17  1  0.93518273  0.86189822  0.81889071  1
  F  F18  1  0.43518273  0.13810178  0.31889071  1
  F  F19  1  0.06481727  0.13810178  0.18110929  1
  F  F20  1  0.08861800  0.48105288  0.32583753  1
  F  F21  1  0.41138200  0.48105288  0.17416247  1
  F  F22  1  0.91138200  0.51894712  0.67416247  1
  F  F23  1  0.58861800  0.51894712  0.82583753  1
  F  F24  1  0.41664087  0.36264875  0.69273916  1
  F  F25  1  0.08335913  0.36264875  0.80726084  1
  F  F26  1  0.58335913  0.63735125  0.30726084  1
  F  F27  1  0.91664087  0.63735125  0.19273916  1
  Al  Al28  1  0.29927341  0.22475474  0.11951561  1
  Al  Al29  1  0.20072659  0.22475474  0.38048439  1
  Al  Al30  1  0.79927341  0.77524526  0.61951561  1
  Al  Al31  1  0.70072659  0.77524526  0.88048439  1
  Ca  Ca32  1  0.75000000  0.32208398  0.25000000  1
  Ca  Ca33  1  0.25000000  0.79220286  0.25000000  1
  Ca  Ca34  1  0.25000000  0.67791602  0.75000000  1
  Ca  Ca35  1  0.75000000  0.20779714  0.75000000  1
  Ba  Ba36  1  0.74811488  0.75741714  0.43237851  1
  Ba  Ba37  1  0.75188512  0.75741714  0.06762149  1
  Ba  Ba38  1  0.25188512  0.24258286  0.56762149  1
  Ba  Ba39  1  0.24811488  0.24258286  0.93237851  1
