# generated using pymatgen
data_KPrF4
_symmetry_space_group_name_H-M   'P 1'
_cell_length_a   3.81298955
_cell_length_b   6.32760730
_cell_length_c   15.85253821
_cell_angle_alpha   90.00000000
_cell_angle_beta   90.00000000
_cell_angle_gamma   90.00000000
_symmetry_Int_Tables_number   1
_chemical_formula_structural   KPrF4
_chemical_formula_sum   'K4 Pr4 F16'
_cell_volume   382.47578275
_cell_formula_units_Z   4
loop_
 _symmetry_equiv_pos_site_id
 _symmetry_equiv_pos_as_xyz
  1  'x, y, z'
loop_
 _atom_site_type_symbol
 _atom_site_label
 _atom_site_symmetry_multiplicity
 _atom_site_fract_x
 _atom_site_fract_y
 _atom_site_fract_z
 _atom_site_occupancy
  F  F0  1  0.25000000  0.58949179  0.19337283  1
  F  F1  1  0.75000000  0.41050821  0.80662717  1
  F  F2  1  0.25000000  0.08949179  0.30662717  1
  F  F3  1  0.75000000  0.91050821  0.69337283  1
  F  F4  1  0.75000000  0.89654094  0.13465878  1
  F  F5  1  0.25000000  0.10345906  0.86534122  1
  F  F6  1  0.75000000  0.39654094  0.36534122  1
  F  F7  1  0.25000000  0.60345906  0.63465878  1
  F  F8  1  0.75000000  0.86511175  0.96429937  1
  F  F9  1  0.25000000  0.13488825  0.03570063  1
  F  F10  1  0.75000000  0.36511175  0.53570063  1
  F  F11  1  0.25000000  0.63488825  0.46429937  1
  F  F12  1  0.25000000  0.00554516  0.55833894  1
  F  F13  1  0.75000000  0.99445484  0.44166106  1
  F  F14  1  0.25000000  0.50554516  0.94166106  1
  F  F15  1  0.75000000  0.49445484  0.05833894  1
  K  K16  1  0.25000000  0.72129837  0.79733775  1
  K  K17  1  0.75000000  0.27870163  0.20266225  1
  K  K18  1  0.25000000  0.22129837  0.70266225  1
  K  K19  1  0.75000000  0.77870163  0.29733775  1
  Pr  Pr20  1  0.75000000  0.74838629  0.56106538  1
  Pr  Pr21  1  0.25000000  0.25161371  0.43893462  1
  Pr  Pr22  1  0.75000000  0.24838629  0.93893462  1
  Pr  Pr23  1  0.25000000  0.75161371  0.06106538  1
