# generated using pymatgen
data_Ge5P6O25
_symmetry_space_group_name_H-M   'P 1'
_cell_length_a   9.62141050
_cell_length_b   9.62141050
_cell_length_c   9.62141051
_cell_angle_alpha   50.00130808
_cell_angle_beta   50.00130801
_cell_angle_gamma   50.00130805
_symmetry_Int_Tables_number   1
_chemical_formula_structural   Ge5P6O25
_chemical_formula_sum   'Ge5 P6 O25'
_cell_volume   481.01480798
_cell_formula_units_Z   1
loop_
 _symmetry_equiv_pos_site_id
 _symmetry_equiv_pos_as_xyz
  1  'x, y, z'
loop_
 _atom_site_type_symbol
 _atom_site_label
 _atom_site_symmetry_multiplicity
 _atom_site_fract_x
 _atom_site_fract_y
 _atom_site_fract_z
 _atom_site_occupancy
  O  O0  1  0.09310327  0.13768916  0.43294935  1
  O  O1  1  0.13768916  0.43294935  0.09310327  1
  O  O2  1  0.43294935  0.09310327  0.13768916  1
  O  O3  1  0.90689673  0.86231084  0.56705065  1
  O  O4  1  0.86231084  0.56705065  0.90689673  1
  O  O5  1  0.56705065  0.90689673  0.86231084  1
  O  O6  1  0.80771118  0.40734213  0.56642263  1
  O  O7  1  0.40734213  0.56642263  0.80771118  1
  O  O8  1  0.56642263  0.80771118  0.40734213  1
  O  O9  1  0.19228882  0.59265787  0.43357737  1
  O  O10  1  0.59265787  0.43357737  0.19228882  1
  O  O11  1  0.50000000  0.50000000  0.50000000  1
  O  O12  1  0.26832594  0.22110524  0.91205024  1
  O  O13  1  0.91205024  0.26832594  0.22110524  1
  O  O14  1  0.22110524  0.91205024  0.26832594  1
  O  O15  1  0.73167406  0.77889476  0.08794976  1
  O  O16  1  0.08794976  0.73167406  0.77889476  1
  O  O17  1  0.77889476  0.08794976  0.73167406  1
  O  O18  1  0.26105639  0.96615274  0.89699608  1
  O  O19  1  0.89699608  0.26105639  0.96615274  1
  O  O20  1  0.96615274  0.89699608  0.26105639  1
  O  O21  1  0.73894361  0.03384726  0.10300392  1
  O  O22  1  0.10300392  0.73894361  0.03384726  1
  O  O23  1  0.03384726  0.10300392  0.73894361  1
  O  O24  1  0.43357737  0.19228882  0.59265787  1
  P  P25  1  0.93015305  0.17627192  0.61977634  1
  P  P26  1  0.17627192  0.61977634  0.93015305  1
  P  P27  1  0.61977634  0.93015305  0.17627192  1
  P  P28  1  0.06984695  0.82372808  0.38022366  1
  P  P29  1  0.82372808  0.38022366  0.06984695  1
  P  P30  1  0.38022366  0.06984695  0.82372808  1
  Ge  Ge31  1  0.56800170  0.56800170  0.56800170  1
  Ge  Ge32  1  0.43199830  0.43199830  0.43199830  1
  Ge  Ge33  1  0.82269501  0.82269501  0.82269501  1
  Ge  Ge34  1  0.17730499  0.17730499  0.17730499  1
  Ge  Ge35  1  0.00000000  0.00000000  0.00000000  1
