# generated using pymatgen
data_La2TiO5
_symmetry_space_group_name_H-M   'P 1'
_cell_length_a   3.93568625
_cell_length_b   11.07042901
_cell_length_c   11.53582181
_cell_angle_alpha   90.00000000
_cell_angle_beta   90.00000000
_cell_angle_gamma   90.00000000
_symmetry_Int_Tables_number   1
_chemical_formula_structural   La2TiO5
_chemical_formula_sum   'La8 Ti4 O20'
_cell_volume   502.61270199
_cell_formula_units_Z   4
loop_
 _symmetry_equiv_pos_site_id
 _symmetry_equiv_pos_as_xyz
  1  'x, y, z'
loop_
 _atom_site_type_symbol
 _atom_site_label
 _atom_site_symmetry_multiplicity
 _atom_site_fract_x
 _atom_site_fract_y
 _atom_site_fract_z
 _atom_site_occupancy
  O  O0  1  0.25000000  0.46448697  0.16732304  1
  O  O1  1  0.75000000  0.53551303  0.83267696  1
  O  O2  1  0.25000000  0.96448697  0.33267696  1
  O  O3  1  0.75000000  0.03551303  0.66732304  1
  O  O4  1  0.25000000  0.22105887  0.27072913  1
  O  O5  1  0.75000000  0.77894113  0.72927087  1
  O  O6  1  0.25000000  0.72105887  0.22927087  1
  O  O7  1  0.75000000  0.27894113  0.77072913  1
  O  O8  1  0.75000000  0.26100630  0.12370812  1
  O  O9  1  0.25000000  0.73899370  0.87629188  1
  O  O10  1  0.75000000  0.76100630  0.37629188  1
  O  O11  1  0.25000000  0.23899370  0.62370812  1
  O  O12  1  0.25000000  0.00831335  0.89779626  1
  O  O13  1  0.75000000  0.99168665  0.10220374  1
  O  O14  1  0.25000000  0.50831335  0.60220374  1
  O  O15  1  0.75000000  0.49168665  0.39779626  1
  O  O16  1  0.25000000  0.27375091  0.96588867  1
  O  O17  1  0.75000000  0.72624909  0.03411133  1
  O  O18  1  0.25000000  0.77375091  0.53411133  1
  O  O19  1  0.75000000  0.22624909  0.46588867  1
  Ti  Ti20  1  0.25000000  0.30815690  0.12722150  1
  Ti  Ti21  1  0.75000000  0.69184310  0.87277850  1
  Ti  Ti22  1  0.25000000  0.80815690  0.37277850  1
  Ti  Ti23  1  0.75000000  0.19184310  0.62722150  1
  La  La24  1  0.75000000  0.09788673  0.28291249  1
  La  La25  1  0.25000000  0.90211327  0.71708751  1
  La  La26  1  0.75000000  0.59788673  0.21708751  1
  La  La27  1  0.25000000  0.40211327  0.78291249  1
  La  La28  1  0.25000000  0.36328131  0.44073691  1
  La  La29  1  0.75000000  0.63671869  0.55926309  1
  La  La30  1  0.25000000  0.86328131  0.05926309  1
  La  La31  1  0.75000000  0.13671869  0.94073691  1
