# generated using pymatgen
data_LiCoPO4
_symmetry_space_group_name_H-M   'P 1'
_cell_length_a   7.55978336
_cell_length_b   8.16293537
_cell_length_c   5.48061324
_cell_angle_alpha   90.00000000
_cell_angle_beta   90.00000000
_cell_angle_gamma   90.00000000
_symmetry_Int_Tables_number   1
_chemical_formula_structural   LiCoPO4
_chemical_formula_sum   'Li4 Co4 P4 O16'
_cell_volume   338.20876898
_cell_formula_units_Z   4
loop_
 _symmetry_equiv_pos_site_id
 _symmetry_equiv_pos_as_xyz
  1  'x, y, z'
loop_
 _atom_site_type_symbol
 _atom_site_label
 _atom_site_symmetry_multiplicity
 _atom_site_fract_x
 _atom_site_fract_y
 _atom_site_fract_z
 _atom_site_occupancy
  Li  Li0  1  0.94875921  0.75945317  0.71430223  1
  Li  Li1  1  0.55124079  0.25945317  0.21430223  1
  Li  Li2  1  0.44875921  0.74054683  0.71430223  1
  Li  Li3  1  0.05124079  0.24054683  0.21430223  1
  Co  Co4  1  0.22069364  0.57202418  0.21925004  1
  Co  Co5  1  0.27930636  0.07202418  0.71925004  1
  Co  Co6  1  0.72069364  0.92797582  0.21925004  1
  Co  Co7  1  0.77930636  0.42797582  0.71925004  1
  P  P8  1  0.20705315  0.44134070  0.72319017  1
  P  P9  1  0.29294685  0.94134070  0.22319017  1
  P  P10  1  0.70705315  0.05865930  0.72319017  1
  P  P11  1  0.79294685  0.55865930  0.22319017  1
  O  O12  1  0.02316751  0.52315794  0.68570722  1
  O  O13  1  0.29580554  0.41028609  0.47283480  1
  O  O14  1  0.18868515  0.27566803  0.86491505  1
  O  O15  1  0.32078570  0.56035664  0.88080049  1
  O  O16  1  0.17921430  0.06035664  0.38080049  1
  O  O17  1  0.31131485  0.77566803  0.36491505  1
  O  O18  1  0.20419446  0.91028609  0.97283480  1
  O  O19  1  0.47683249  0.02315794  0.18570722  1
  O  O20  1  0.52316751  0.97684206  0.68570722  1
  O  O21  1  0.79580554  0.08971391  0.47283480  1
  O  O22  1  0.68868515  0.22433197  0.86491505  1
  O  O23  1  0.82078570  0.93964336  0.88080049  1
  O  O24  1  0.67921430  0.43964336  0.38080049  1
  O  O25  1  0.81131485  0.72433197  0.36491505  1
  O  O26  1  0.70419446  0.58971391  0.97283480  1
  O  O27  1  0.97683249  0.47684206  0.18570722  1
