# generated using pymatgen
data_BaSbF5
_symmetry_space_group_name_H-M   'P 1'
_cell_length_a   4.80271475
_cell_length_b   9.51720106
_cell_length_c   11.45778827
_cell_angle_alpha   90.00000000
_cell_angle_beta   90.00000000
_cell_angle_gamma   90.00000000
_symmetry_Int_Tables_number   1
_chemical_formula_structural   BaSbF5
_chemical_formula_sum   'Ba4 Sb4 F20'
_cell_volume   523.71719124
_cell_formula_units_Z   4
loop_
 _symmetry_equiv_pos_site_id
 _symmetry_equiv_pos_as_xyz
  1  'x, y, z'
loop_
 _atom_site_type_symbol
 _atom_site_label
 _atom_site_symmetry_multiplicity
 _atom_site_fract_x
 _atom_site_fract_y
 _atom_site_fract_z
 _atom_site_occupancy
  F  F0  1  0.11352852  0.98808384  0.38338246  1
  F  F1  1  0.11352852  0.51191616  0.61661754  1
  F  F2  1  0.88647148  0.48808384  0.11661754  1
  F  F3  1  0.88647148  0.01191616  0.88338246  1
  F  F4  1  0.88647148  0.01191616  0.61661754  1
  F  F5  1  0.88647148  0.48808384  0.38338246  1
  F  F6  1  0.11352852  0.51191616  0.88338246  1
  F  F7  1  0.11352852  0.98808384  0.11661754  1
  F  F8  1  0.10198495  0.20808405  0.25000000  1
  F  F9  1  0.10198495  0.29191595  0.75000000  1
  F  F10  1  0.89801505  0.70808405  0.25000000  1
  F  F11  1  0.89801505  0.79191595  0.75000000  1
  F  F12  1  0.46965148  0.69189740  0.11481492  1
  F  F13  1  0.46965148  0.80810260  0.88518508  1
  F  F14  1  0.53034852  0.19189740  0.38518508  1
  F  F15  1  0.53034852  0.30810260  0.61481492  1
  F  F16  1  0.53034852  0.30810260  0.88518508  1
  F  F17  1  0.53034852  0.19189740  0.11481492  1
  F  F18  1  0.46965148  0.80810260  0.61481492  1
  F  F19  1  0.46965148  0.69189740  0.38518508  1
  Sb  Sb20  1  0.60791516  0.94407721  0.75000000  1
  Sb  Sb21  1  0.60791516  0.55592279  0.25000000  1
  Sb  Sb22  1  0.39208484  0.44407721  0.75000000  1
  Sb  Sb23  1  0.39208484  0.05592279  0.25000000  1
  Ba  Ba24  1  0.01270874  0.25000000  0.50000000  1
  Ba  Ba25  1  0.98729126  0.75000000  0.00000000  1
  Ba  Ba26  1  0.98729126  0.75000000  0.50000000  1
  Ba  Ba27  1  0.01270874  0.25000000  0.00000000  1
