# generated using pymatgen
data_BaLaCuS3
_symmetry_space_group_name_H-M   'P 1'
_cell_length_a   4.25783549
_cell_length_b   11.35338906
_cell_length_c   11.89310254
_cell_angle_alpha   90.00000000
_cell_angle_beta   90.00000000
_cell_angle_gamma   90.00000000
_symmetry_Int_Tables_number   1
_chemical_formula_structural   BaLaCuS3
_chemical_formula_sum   'Ba4 La4 Cu4 S12'
_cell_volume   574.92283900
_cell_formula_units_Z   4
loop_
 _symmetry_equiv_pos_site_id
 _symmetry_equiv_pos_as_xyz
  1  'x, y, z'
loop_
 _atom_site_type_symbol
 _atom_site_label
 _atom_site_symmetry_multiplicity
 _atom_site_fract_x
 _atom_site_fract_y
 _atom_site_fract_z
 _atom_site_occupancy
  S  S0  1  0.75000000  0.94879946  0.34862939  1
  S  S1  1  0.25000000  0.05120054  0.65137061  1
  S  S2  1  0.75000000  0.44879946  0.15137061  1
  S  S3  1  0.25000000  0.55120054  0.84862939  1
  S  S4  1  0.25000000  0.88939391  0.93981747  1
  S  S5  1  0.75000000  0.11060609  0.06018253  1
  S  S6  1  0.25000000  0.38939391  0.56018253  1
  S  S7  1  0.75000000  0.77487035  0.70418743  1
  S  S8  1  0.25000000  0.72512965  0.20418743  1
  S  S9  1  0.75000000  0.27487035  0.79581257  1
  S  S10  1  0.25000000  0.22512965  0.29581257  1
  S  S11  1  0.75000000  0.61060609  0.43981747  1
  Cu  Cu12  1  0.25000000  0.74788806  0.79163947  1
  Cu  Cu13  1  0.25000000  0.24788806  0.70836053  1
  Cu  Cu14  1  0.75000000  0.25211194  0.20836053  1
  Cu  Cu15  1  0.75000000  0.75211194  0.29163947  1
  Ba  Ba16  1  0.25000000  0.31665620  0.99219107  1
  Ba  Ba17  1  0.75000000  0.68334380  0.00780893  1
  Ba  Ba18  1  0.75000000  0.18334380  0.49219107  1
  Ba  Ba19  1  0.25000000  0.81665620  0.50780893  1
  La  La20  1  0.25000000  0.98961165  0.18199742  1
  La  La21  1  0.75000000  0.01038835  0.81800258  1
  La  La22  1  0.25000000  0.48961165  0.31800258  1
  La  La23  1  0.75000000  0.51038835  0.68199742  1
