# generated using pymatgen
data_LiCoPO4
_symmetry_space_group_name_H-M   'P 1'
_cell_length_a   4.90923415
_cell_length_b   5.39887513
_cell_length_c   6.80952979
_cell_angle_alpha   77.70999812
_cell_angle_beta   90.00000000
_cell_angle_gamma   62.95736267
_symmetry_Int_Tables_number   1
_chemical_formula_structural   LiCoPO4
_chemical_formula_sum   'Li2 Co2 P2 O8'
_cell_volume   156.09155821
_cell_formula_units_Z   2
loop_
 _symmetry_equiv_pos_site_id
 _symmetry_equiv_pos_as_xyz
  1  'x, y, z'
loop_
 _atom_site_type_symbol
 _atom_site_label
 _atom_site_symmetry_multiplicity
 _atom_site_fract_x
 _atom_site_fract_y
 _atom_site_fract_z
 _atom_site_occupancy
  Li  Li0  1  0.94653569  0.00000000  0.50000000  1
  Li  Li1  1  0.94756373  0.00000000  0.00000000  1
  Co  Co2  1  0.64317042  0.73011208  0.73826857  1
  Co  Co3  1  0.37328350  0.26988792  0.26173143  1
  P  P4  1  0.69232521  0.63710264  0.23402108  1
  P  P5  1  0.32942685  0.36289736  0.76597892  1
  O  O6  1  0.27697373  0.67410654  0.67439252  1
  O  O7  1  0.69321647  0.84515038  0.36372565  1
  O  O8  1  0.77036980  0.72645970  0.01902112  1
  O  O9  1  0.37096925  0.65074550  0.23148295  1
  O  O10  1  0.02171574  0.34925450  0.76851705  1
  O  O11  1  0.49682950  0.27354030  0.98097888  1
  O  O12  1  0.53836684  0.15484962  0.63627435  1
  O  O13  1  0.95107927  0.32589346  0.32560748  1
