# generated using pymatgen
data_RbDy(SO4)2
_symmetry_space_group_name_H-M   'P 1'
_cell_length_a   5.34935102
_cell_length_b   9.58404987
_cell_length_c   13.55566696
_cell_angle_alpha   90.00000000
_cell_angle_beta   90.00000000
_cell_angle_gamma   90.00000000
_symmetry_Int_Tables_number   1
_chemical_formula_structural   RbDy(SO4)2
_chemical_formula_sum   'Rb4 Dy4 S8 O32'
_cell_volume   694.97799238
_cell_formula_units_Z   4
loop_
 _symmetry_equiv_pos_site_id
 _symmetry_equiv_pos_as_xyz
  1  'x, y, z'
loop_
 _atom_site_type_symbol
 _atom_site_label
 _atom_site_symmetry_multiplicity
 _atom_site_fract_x
 _atom_site_fract_y
 _atom_site_fract_z
 _atom_site_occupancy
  O  O0  1  0.01253119  0.84753502  0.09958755  1
  O  O1  1  0.01253119  0.65246498  0.90041245  1
  O  O2  1  0.48746881  0.84753502  0.40041245  1
  O  O3  1  0.48746881  0.65246498  0.59958755  1
  O  O4  1  0.98746881  0.15246498  0.90041245  1
  O  O5  1  0.98746881  0.34753502  0.09958755  1
  O  O6  1  0.51253119  0.15246498  0.59958755  1
  O  O7  1  0.51253119  0.34753502  0.40041245  1
  O  O8  1  0.56517933  0.84258386  0.14237390  1
  O  O9  1  0.56517933  0.65741614  0.85762610  1
  O  O10  1  0.93482067  0.84258386  0.35762610  1
  O  O11  1  0.93482067  0.65741614  0.64237390  1
  O  O12  1  0.43482067  0.15741614  0.85762610  1
  O  O13  1  0.43482067  0.34258386  0.14237390  1
  O  O14  1  0.06517933  0.15741614  0.64237390  1
  O  O15  1  0.06517933  0.34258386  0.35762610  1
  O  O16  1  0.28131751  0.56413640  0.39034052  1
  O  O17  1  0.28131751  0.93586360  0.60965948  1
  O  O18  1  0.21868249  0.56413640  0.10965948  1
  O  O19  1  0.21868249  0.93586360  0.89034052  1
  O  O20  1  0.71868249  0.43586360  0.60965948  1
  O  O21  1  0.71868249  0.06413640  0.39034052  1
  O  O22  1  0.78131751  0.43586360  0.89034052  1
  O  O23  1  0.78131751  0.06413640  0.10965948  1
  O  O24  1  0.18553407  0.39749247  0.52226137  1
  O  O25  1  0.18553407  0.10250753  0.47773863  1
  O  O26  1  0.31446593  0.39749247  0.97773863  1
  O  O27  1  0.31446593  0.10250753  0.02226137  1
  O  O28  1  0.81446593  0.60250753  0.47773863  1
  O  O29  1  0.81446593  0.89749247  0.52226137  1
  O  O30  1  0.68553407  0.60250753  0.02226137  1
  O  O31  1  0.68553407  0.89749247  0.97773863  1
  S  S32  1  0.76402102  0.91346023  0.08288706  1
  S  S33  1  0.76402102  0.58653977  0.91711294  1
  S  S34  1  0.73597898  0.91346023  0.41711294  1
  S  S35  1  0.73597898  0.58653977  0.58288706  1
  S  S36  1  0.23597898  0.08653977  0.91711294  1
  S  S37  1  0.23597898  0.41346023  0.08288706  1
  S  S38  1  0.26402102  0.08653977  0.58288706  1
  S  S39  1  0.26402102  0.41346023  0.41711294  1
  Rb  Rb40  1  0.25000000  0.07768685  0.25000000  1
  Rb  Rb41  1  0.25000000  0.42231315  0.75000000  1
  Rb  Rb42  1  0.75000000  0.92231315  0.75000000  1
  Rb  Rb43  1  0.75000000  0.57768685  0.25000000  1
  Dy  Dy44  1  0.17288139  0.75000000  0.50000000  1
  Dy  Dy45  1  0.32711861  0.75000000  0.00000000  1
  Dy  Dy46  1  0.82711861  0.25000000  0.50000000  1
  Dy  Dy47  1  0.67288139  0.25000000  0.00000000  1
