# generated using pymatgen
data_Ba3TaAs3O
_symmetry_space_group_name_H-M   'P 1'
_cell_length_a   6.81808775
_cell_length_b   11.24893689
_cell_length_c   13.68252998
_cell_angle_alpha   90.00000000
_cell_angle_beta   90.00000000
_cell_angle_gamma   90.00000000
_symmetry_Int_Tables_number   1
_chemical_formula_structural   Ba3TaAs3O
_chemical_formula_sum   'Ba12 Ta4 As12 O4'
_cell_volume   1049.39858687
_cell_formula_units_Z   4
loop_
 _symmetry_equiv_pos_site_id
 _symmetry_equiv_pos_as_xyz
  1  'x, y, z'
loop_
 _atom_site_type_symbol
 _atom_site_label
 _atom_site_symmetry_multiplicity
 _atom_site_fract_x
 _atom_site_fract_y
 _atom_site_fract_z
 _atom_site_occupancy
  O  O0  1  0.11377879  0.25000000  0.05318183  1
  O  O1  1  0.61377879  0.25000000  0.44681817  1
  O  O2  1  0.88622121  0.75000000  0.94681817  1
  O  O3  1  0.38622121  0.75000000  0.55318183  1
  As  As4  1  0.27234016  0.25000000  0.63339453  1
  As  As5  1  0.77234016  0.25000000  0.86660547  1
  As  As6  1  0.72765984  0.75000000  0.36660547  1
  As  As7  1  0.22765984  0.75000000  0.13339453  1
  As  As8  1  0.73614434  0.44375177  0.11761858  1
  As  As9  1  0.23614434  0.05624823  0.38238142  1
  As  As10  1  0.26385566  0.94375177  0.88238142  1
  As  As11  1  0.76385566  0.55624823  0.61761858  1
  As  As12  1  0.26385566  0.55624823  0.88238142  1
  As  As13  1  0.23614434  0.44375177  0.38238142  1
  As  As14  1  0.73614434  0.05624823  0.11761858  1
  As  As15  1  0.76385566  0.94375177  0.61761858  1
  Ba  Ba16  1  0.24292625  0.04477063  0.13094963  1
  Ba  Ba17  1  0.72714324  0.75000000  0.12857202  1
  Ba  Ba18  1  0.77285676  0.25000000  0.62857202  1
  Ba  Ba19  1  0.27285676  0.25000000  0.87142798  1
  Ba  Ba20  1  0.75707375  0.95522937  0.86905037  1
  Ba  Ba21  1  0.25707375  0.54477063  0.63094963  1
  Ba  Ba22  1  0.24292625  0.45522937  0.13094963  1
  Ba  Ba23  1  0.74292625  0.04477063  0.36905037  1
  Ba  Ba24  1  0.25707375  0.95522937  0.63094963  1
  Ba  Ba25  1  0.74292625  0.45522937  0.36905037  1
  Ba  Ba26  1  0.75707375  0.54477063  0.86905037  1
  Ba  Ba27  1  0.22714324  0.75000000  0.37142798  1
  Ta  Ta28  1  0.66152674  0.75000000  0.54532440  1
  Ta  Ta29  1  0.16152674  0.75000000  0.95467560  1
  Ta  Ta30  1  0.33847326  0.25000000  0.45467560  1
  Ta  Ta31  1  0.83847326  0.25000000  0.04532440  1
