# generated using pymatgen
data_CsAgSe4
_symmetry_space_group_name_H-M   'P 1'
_cell_length_a   5.92524672
_cell_length_b   9.49198376
_cell_length_c   14.46585924
_cell_angle_alpha   90.00000000
_cell_angle_beta   90.00000000
_cell_angle_gamma   90.00000000
_symmetry_Int_Tables_number   1
_chemical_formula_structural   CsAgSe4
_chemical_formula_sum   'Cs4 Ag4 Se16'
_cell_volume   813.59385536
_cell_formula_units_Z   4
loop_
 _symmetry_equiv_pos_site_id
 _symmetry_equiv_pos_as_xyz
  1  'x, y, z'
loop_
 _atom_site_type_symbol
 _atom_site_label
 _atom_site_symmetry_multiplicity
 _atom_site_fract_x
 _atom_site_fract_y
 _atom_site_fract_z
 _atom_site_occupancy
  Se  Se0  1  0.88084530  0.29922385  0.60591972  1
  Se  Se1  1  0.38084530  0.20077615  0.39408028  1
  Se  Se2  1  0.11915470  0.79922385  0.89408028  1
  Se  Se3  1  0.61915470  0.70077615  0.10591972  1
  Se  Se4  1  0.14500512  0.12884347  0.66302646  1
  Se  Se5  1  0.64500512  0.37115653  0.33697354  1
  Se  Se6  1  0.85499488  0.62884347  0.83697354  1
  Se  Se7  1  0.35499488  0.87115653  0.16302646  1
  Se  Se8  1  0.80521049  0.12883143  0.09586481  1
  Se  Se9  1  0.30521049  0.37116857  0.90413519  1
  Se  Se10  1  0.19478951  0.62883143  0.40413519  1
  Se  Se11  1  0.69478951  0.87116857  0.59586481  1
  Se  Se12  1  0.41702521  0.07957133  0.06979525  1
  Se  Se13  1  0.91702521  0.42042867  0.93020475  1
  Se  Se14  1  0.58297479  0.57957133  0.43020475  1
  Se  Se15  1  0.08297479  0.92042867  0.56979525  1
  Ag  Ag16  1  0.54474496  0.12807378  0.55872815  1
  Ag  Ag17  1  0.04474496  0.37192622  0.44127185  1
  Ag  Ag18  1  0.45525504  0.62807378  0.94127185  1
  Ag  Ag19  1  0.95525504  0.87192622  0.05872815  1
  Cs  Cs20  1  0.32161763  0.56459191  0.66676105  1
  Cs  Cs21  1  0.82161763  0.93540809  0.33323895  1
  Cs  Cs22  1  0.67838237  0.06459191  0.83323895  1
  Cs  Cs23  1  0.17838237  0.43540809  0.16676105  1
