# generated using pymatgen
data_Na6Ge2Se7
_symmetry_space_group_name_H-M   'P 1'
_cell_length_a   7.31737141
_cell_length_b   7.31737142
_cell_length_c   16.08266322
_cell_angle_alpha   99.23656547
_cell_angle_beta   99.23656547
_cell_angle_gamma   98.52732335
_symmetry_Int_Tables_number   1
_chemical_formula_structural   Na6Ge2Se7
_chemical_formula_sum   'Na12 Ge4 Se14'
_cell_volume   825.44697411
_cell_formula_units_Z   2
loop_
 _symmetry_equiv_pos_site_id
 _symmetry_equiv_pos_as_xyz
  1  'x, y, z'
loop_
 _atom_site_type_symbol
 _atom_site_label
 _atom_site_symmetry_multiplicity
 _atom_site_fract_x
 _atom_site_fract_y
 _atom_site_fract_z
 _atom_site_occupancy
  Na  Na0  1  0.50000000  0.50000000  0.00000000  1
  Na  Na1  1  0.50000000  0.50000000  0.50000000  1
  Na  Na2  1  0.73660400  0.03084031  0.92865356  1
  Na  Na3  1  0.96915969  0.26339600  0.57134644  1
  Na  Na4  1  0.26339600  0.96915969  0.07134644  1
  Na  Na5  1  0.03084031  0.73660400  0.42865356  1
  Na  Na6  1  0.41978714  0.58021286  0.75000000  1
  Na  Na7  1  0.58021286  0.41978714  0.25000000  1
  Na  Na8  1  0.49166871  0.04511667  0.64128723  1
  Na  Na9  1  0.95488333  0.50833129  0.85871277  1
  Na  Na10  1  0.50833129  0.95488333  0.35871277  1
  Na  Na11  1  0.04511667  0.49166871  0.14128723  1
  Ge  Ge12  1  0.24061720  0.07601816  0.86017410  1
  Ge  Ge13  1  0.92398184  0.75938280  0.63982590  1
  Ge  Ge14  1  0.75938280  0.92398184  0.13982590  1
  Ge  Ge15  1  0.07601816  0.24061720  0.36017410  1
  Se  Se16  1  0.50394435  0.24808633  0.82017009  1
  Se  Se17  1  0.75191367  0.49605565  0.67982991  1
  Se  Se18  1  0.49605565  0.75191367  0.17982991  1
  Se  Se19  1  0.24808633  0.50394435  0.32017009  1
  Se  Se20  1  0.13022086  0.26328947  0.97109568  1
  Se  Se21  1  0.73671053  0.86977914  0.52890432  1
  Se  Se22  1  0.86977914  0.73671053  0.02890432  1
  Se  Se23  1  0.26328947  0.13022086  0.47109568  1
  Se  Se24  1  0.31230747  0.78995827  0.89554970  1
  Se  Se25  1  0.21004173  0.68769253  0.60445030  1
  Se  Se26  1  0.68769253  0.21004173  0.10445030  1
  Se  Se27  1  0.78995827  0.31230747  0.39554970  1
  Se  Se28  1  0.96057837  0.03942163  0.75000000  1
  Se  Se29  1  0.03942163  0.96057837  0.25000000  1
