# generated using pymatgen
data_Ba2LaC3O9F
_symmetry_space_group_name_H-M   'P 1'
_cell_length_a   5.17955656
_cell_length_b   6.72668337
_cell_length_c   13.33545637
_cell_angle_alpha   102.50101089
_cell_angle_beta   90.00000000
_cell_angle_gamma   90.00000000
_symmetry_Int_Tables_number   1
_chemical_formula_structural   Ba2LaC3O9F
_chemical_formula_sum   'Ba4 La2 C6 O18 F2'
_cell_volume   453.60858231
_cell_formula_units_Z   2
loop_
 _symmetry_equiv_pos_site_id
 _symmetry_equiv_pos_as_xyz
  1  'x, y, z'
loop_
 _atom_site_type_symbol
 _atom_site_label
 _atom_site_symmetry_multiplicity
 _atom_site_fract_x
 _atom_site_fract_y
 _atom_site_fract_z
 _atom_site_occupancy
  C  C0  1  0.25000000  0.25417522  0.42661872  1
  C  C1  1  0.25000000  0.33156614  0.12802566  1
  C  C2  1  0.75000000  0.66843386  0.87197434  1
  C  C3  1  0.75000000  0.74582478  0.57338128  1
  C  C4  1  0.25000000  0.21536603  0.72742792  1
  C  C5  1  0.75000000  0.78463397  0.27257208  1
  O  O6  1  0.53440757  0.87749603  0.26204087  1
  O  O7  1  0.03440757  0.12250397  0.73795913  1
  O  O8  1  0.96559243  0.87749603  0.26204087  1
  O  O9  1  0.46559243  0.12250397  0.73795913  1
  O  O10  1  0.03135613  0.40116467  0.10379430  1
  O  O11  1  0.46864387  0.40116467  0.10379430  1
  O  O12  1  0.53135613  0.59883533  0.89620570  1
  O  O13  1  0.96864387  0.59883533  0.89620570  1
  O  O14  1  0.75000000  0.80820412  0.81711915  1
  O  O15  1  0.25000000  0.19179588  0.18288085  1
  O  O16  1  0.75000000  0.60960734  0.29766020  1
  O  O17  1  0.25000000  0.39039266  0.70233980  1
  O  O18  1  0.75000000  0.86481701  0.50959817  1
  O  O19  1  0.25000000  0.13518299  0.49040183  1
  O  O20  1  0.96755701  0.67907730  0.60287870  1
  O  O21  1  0.46755701  0.32092270  0.39712130  1
  O  O22  1  0.03244299  0.32092270  0.39712130  1
  O  O23  1  0.53244299  0.67907730  0.60287870  1
  F  F24  1  0.25000000  0.01355324  0.92646804  1
  F  F25  1  0.75000000  0.98644676  0.07353196  1
  Ba  Ba26  1  0.25000000  0.72738369  0.41683507  1
  Ba  Ba27  1  0.75000000  0.21506254  0.92499550  1
  Ba  Ba28  1  0.75000000  0.27261631  0.58316493  1
  Ba  Ba29  1  0.25000000  0.78493746  0.07500450  1
  La  La30  1  0.25000000  0.77341900  0.76163435  1
  La  La31  1  0.75000000  0.22658100  0.23836565  1
