# generated using pymatgen
data_Sr2Ge2Se5
_symmetry_space_group_name_H-M   'P 1'
_cell_length_a   8.60553027
_cell_length_b   9.32577931
_cell_length_c   12.46774478
_cell_angle_alpha   90.00000000
_cell_angle_beta   90.00000000
_cell_angle_gamma   93.93405539
_symmetry_Int_Tables_number   1
_chemical_formula_structural   Sr2Ge2Se5
_chemical_formula_sum   'Sr8 Ge8 Se20'
_cell_volume   998.21968009
_cell_formula_units_Z   4
loop_
 _symmetry_equiv_pos_site_id
 _symmetry_equiv_pos_as_xyz
  1  'x, y, z'
loop_
 _atom_site_type_symbol
 _atom_site_label
 _atom_site_symmetry_multiplicity
 _atom_site_fract_x
 _atom_site_fract_y
 _atom_site_fract_z
 _atom_site_occupancy
  Ge  Ge0  1  0.29722673  0.81259613  0.01908940  1
  Ge  Ge1  1  0.70277327  0.18740387  0.98091060  1
  Ge  Ge2  1  0.79722673  0.31259613  0.48091060  1
  Ge  Ge3  1  0.20277327  0.68740387  0.51908940  1
  Ge  Ge4  1  0.00530631  0.16398643  0.55029323  1
  Ge  Ge5  1  0.49469369  0.33601357  0.05029323  1
  Ge  Ge6  1  0.99469369  0.83601357  0.44970677  1
  Ge  Ge7  1  0.50530631  0.66398643  0.94970677  1
  Se  Se8  1  0.84309442  0.93983464  0.59040773  1
  Se  Se9  1  0.65690558  0.56016536  0.09040773  1
  Se  Se10  1  0.15690558  0.06016536  0.40959227  1
  Se  Se11  1  0.34309442  0.43983464  0.90959227  1
  Se  Se12  1  0.65692438  0.71966571  0.79438442  1
  Se  Se13  1  0.15692438  0.21966571  0.70561558  1
  Se  Se14  1  0.84307562  0.78033429  0.29438442  1
  Se  Se15  1  0.34307562  0.28033429  0.20561558  1
  Se  Se16  1  0.79333430  0.54270793  0.55836631  1
  Se  Se17  1  0.70666570  0.95729207  0.05836631  1
  Se  Se18  1  0.20666570  0.45729207  0.44163369  1
  Se  Se19  1  0.29333430  0.04270793  0.94163369  1
  Se  Se20  1  0.46279697  0.78834552  0.49104406  1
  Se  Se21  1  0.03720303  0.71165448  0.99104406  1
  Se  Se22  1  0.53720303  0.21165448  0.50895594  1
  Se  Se23  1  0.96279697  0.28834552  0.00895594  1
  Se  Se24  1  0.68801152  0.20309414  0.78809703  1
  Se  Se25  1  0.81198848  0.29690586  0.28809703  1
  Se  Se26  1  0.31198848  0.79690586  0.21190297  1
  Se  Se27  1  0.18801152  0.70309414  0.71190297  1
  Sr  Sr28  1  0.94071553  0.47596015  0.80127225  1
  Sr  Sr29  1  0.55928447  0.02403985  0.30127225  1
  Sr  Sr30  1  0.05928447  0.52403985  0.19872775  1
  Sr  Sr31  1  0.44071553  0.97596015  0.69872775  1
  Sr  Sr32  1  0.45546863  0.46711036  0.66204698  1
  Sr  Sr33  1  0.04453137  0.03288964  0.16204698  1
  Sr  Sr34  1  0.54453137  0.53288964  0.33795302  1
  Sr  Sr35  1  0.95546863  0.96711036  0.83795302  1
