# generated using pymatgen
data_Na2Si2S5
_symmetry_space_group_name_H-M   'P 1'
_cell_length_a   9.10645649
_cell_length_b   9.10645650
_cell_length_c   10.53948497
_cell_angle_alpha   90.00000000
_cell_angle_beta   90.00000000
_cell_angle_gamma   90.33600151
_symmetry_Int_Tables_number   1
_chemical_formula_structural   Na2Si2S5
_chemical_formula_sum   'Na8 Si8 S20'
_cell_volume   873.99863700
_cell_formula_units_Z   4
loop_
 _symmetry_equiv_pos_site_id
 _symmetry_equiv_pos_as_xyz
  1  'x, y, z'
loop_
 _atom_site_type_symbol
 _atom_site_label
 _atom_site_symmetry_multiplicity
 _atom_site_fract_x
 _atom_site_fract_y
 _atom_site_fract_z
 _atom_site_occupancy
  Na  Na0  1  0.90282218  0.42028669  0.75000000  1
  Na  Na1  1  0.84937755  0.84937755  0.50000000  1
  Na  Na2  1  0.84937755  0.84937755  0.00000000  1
  Na  Na3  1  0.15062245  0.15062245  0.50000000  1
  Na  Na4  1  0.57971331  0.09717782  0.75000000  1
  Na  Na5  1  0.42028669  0.90282218  0.25000000  1
  Na  Na6  1  0.09717782  0.57971331  0.25000000  1
  Na  Na7  1  0.15062245  0.15062245  0.00000000  1
  Si  Si8  1  0.68945879  0.58051806  0.25000000  1
  Si  Si9  1  0.41948194  0.31054121  0.25000000  1
  Si  Si10  1  0.58051806  0.68945879  0.75000000  1
  Si  Si11  1  0.25319010  0.74680990  0.58546565  1
  Si  Si12  1  0.74680990  0.25319010  0.08546565  1
  Si  Si13  1  0.74680990  0.25319010  0.41453435  1
  Si  Si14  1  0.31054121  0.41948194  0.75000000  1
  Si  Si15  1  0.25319010  0.74680990  0.91453435  1
  S  S16  1  0.48731021  0.79194053  0.58295683  1
  S  S17  1  0.79194053  0.48731021  0.41704317  1
  S  S18  1  0.20805947  0.51268979  0.91704317  1
  S  S19  1  0.84527502  0.15472498  0.25000000  1
  S  S20  1  0.16082402  0.83917598  0.07562239  1
  S  S21  1  0.83917598  0.16082402  0.57562239  1
  S  S22  1  0.83917598  0.16082402  0.92437761  1
  S  S23  1  0.16082402  0.83917598  0.42437761  1
  S  S24  1  0.80362917  0.72875746  0.75000000  1
  S  S25  1  0.19637083  0.27124254  0.25000000  1
  S  S26  1  0.72875746  0.80362917  0.25000000  1
  S  S27  1  0.27124254  0.19637083  0.75000000  1
  S  S28  1  0.51268979  0.20805947  0.08295683  1
  S  S29  1  0.20805947  0.51268979  0.58295683  1
  S  S30  1  0.79194053  0.48731021  0.08295683  1
  S  S31  1  0.51268979  0.20805947  0.41704317  1
  S  S32  1  0.48731021  0.79194053  0.91704317  1
  S  S33  1  0.45641904  0.54358096  0.25000000  1
  S  S34  1  0.54358096  0.45641904  0.75000000  1
  S  S35  1  0.15472498  0.84527502  0.75000000  1
