# generated using pymatgen
data_K2Cd3S4
_symmetry_space_group_name_H-M   'P 1'
_cell_length_a   6.75171003
_cell_length_b   10.41801256
_cell_length_c   14.07856401
_cell_angle_alpha   90.00000000
_cell_angle_beta   90.00000000
_cell_angle_gamma   90.00000000
_symmetry_Int_Tables_number   1
_chemical_formula_structural   K2Cd3S4
_chemical_formula_sum   'K8 Cd12 S16'
_cell_volume   990.27774383
_cell_formula_units_Z   4
loop_
 _symmetry_equiv_pos_site_id
 _symmetry_equiv_pos_as_xyz
  1  'x, y, z'
loop_
 _atom_site_type_symbol
 _atom_site_label
 _atom_site_symmetry_multiplicity
 _atom_site_fract_x
 _atom_site_fract_y
 _atom_site_fract_z
 _atom_site_occupancy
  S  S0  1  0.62670524  0.03297755  0.13610472  1
  S  S1  1  0.12670524  0.96702245  0.36389528  1
  S  S2  1  0.37329476  0.53297755  0.86389528  1
  S  S3  1  0.87329476  0.46702245  0.63610472  1
  S  S4  1  0.37329476  0.96702245  0.86389528  1
  S  S5  1  0.87329476  0.03297755  0.63610472  1
  S  S6  1  0.62670524  0.46702245  0.13610472  1
  S  S7  1  0.12670524  0.53297755  0.36389528  1
  S  S8  1  0.92606555  0.25000000  0.85713781  1
  S  S9  1  0.42606555  0.75000000  0.64286219  1
  S  S10  1  0.07393445  0.75000000  0.14286219  1
  S  S11  1  0.57393445  0.25000000  0.35713781  1
  S  S12  1  0.86143696  0.75000000  0.85384215  1
  S  S13  1  0.63856304  0.75000000  0.35384215  1
  S  S14  1  0.13856304  0.25000000  0.14615785  1
  S  S15  1  0.36143696  0.25000000  0.64615785  1
  K  K16  1  0.01526627  0.25000000  0.46946018  1
  K  K17  1  0.51526627  0.75000000  0.03053982  1
  K  K18  1  0.98473373  0.75000000  0.53053982  1
  K  K19  1  0.48473373  0.25000000  0.96946018  1
  K  K20  1  0.00000000  0.00000000  0.00000000  1
  K  K21  1  0.50000000  0.50000000  0.50000000  1
  K  K22  1  0.00000000  0.50000000  0.00000000  1
  K  K23  1  0.50000000  0.00000000  0.50000000  1
  Cd  Cd24  1  0.34530445  0.09300122  0.25148262  1
  Cd  Cd25  1  0.84530445  0.90699878  0.24851738  1
  Cd  Cd26  1  0.65469555  0.59300122  0.74851738  1
  Cd  Cd27  1  0.15469555  0.40699878  0.75148262  1
  Cd  Cd28  1  0.65469555  0.90699878  0.74851738  1
  Cd  Cd29  1  0.15469555  0.09300122  0.75148262  1
  Cd  Cd30  1  0.34530445  0.40699878  0.25148262  1
  Cd  Cd31  1  0.84530445  0.59300122  0.24851738  1
  Cd  Cd32  1  0.71508352  0.25000000  0.70399885  1
  Cd  Cd33  1  0.21508352  0.75000000  0.79600115  1
  Cd  Cd34  1  0.28491648  0.75000000  0.29600115  1
  Cd  Cd35  1  0.78491648  0.25000000  0.20399885  1
