# generated using pymatgen
data_K4SnSe4
_symmetry_space_group_name_H-M   'P 1'
_cell_length_a   8.38856258
_cell_length_b   10.45552577
_cell_length_c   15.00481446
_cell_angle_alpha   90.00000000
_cell_angle_beta   90.00000000
_cell_angle_gamma   90.00000000
_symmetry_Int_Tables_number   1
_chemical_formula_structural   K4SnSe4
_chemical_formula_sum   'K16 Sn4 Se16'
_cell_volume   1316.02474446
_cell_formula_units_Z   4
loop_
 _symmetry_equiv_pos_site_id
 _symmetry_equiv_pos_as_xyz
  1  'x, y, z'
loop_
 _atom_site_type_symbol
 _atom_site_label
 _atom_site_symmetry_multiplicity
 _atom_site_fract_x
 _atom_site_fract_y
 _atom_site_fract_z
 _atom_site_occupancy
  K  K0  1  0.00000000  0.00000000  0.00000000  1
  K  K1  1  0.50000000  0.00000000  0.50000000  1
  K  K2  1  0.00000000  0.50000000  0.00000000  1
  K  K3  1  0.50000000  0.50000000  0.50000000  1
  K  K4  1  0.98424006  0.75000000  0.57609575  1
  K  K5  1  0.48424006  0.25000000  0.92390425  1
  K  K6  1  0.01575994  0.25000000  0.42390425  1
  K  K7  1  0.51575994  0.75000000  0.07609575  1
  K  K8  1  0.84320621  0.04965477  0.72837131  1
  K  K9  1  0.34320621  0.95034523  0.77162869  1
  K  K10  1  0.15679379  0.54965477  0.27162869  1
  K  K11  1  0.65679379  0.45034523  0.22837131  1
  K  K12  1  0.15679379  0.95034523  0.27162869  1
  K  K13  1  0.65679379  0.04965477  0.22837131  1
  K  K14  1  0.84320621  0.45034523  0.72837131  1
  K  K15  1  0.34320621  0.54965477  0.77162869  1
  Se  Se16  1  0.95349251  0.25000000  0.17308971  1
  Se  Se17  1  0.54650749  0.25000000  0.67308971  1
  Se  Se18  1  0.45349251  0.75000000  0.32691029  1
  Se  Se19  1  0.04650749  0.75000000  0.82691029  1
  Se  Se20  1  0.64420254  0.55016912  0.91527482  1
  Se  Se21  1  0.14420254  0.44983088  0.58472518  1
  Se  Se22  1  0.35579746  0.05016912  0.08472518  1
  Se  Se23  1  0.85579746  0.94983088  0.41527482  1
  Se  Se24  1  0.35579746  0.44983088  0.08472518  1
  Se  Se25  1  0.85579746  0.55016912  0.41527482  1
  Se  Se26  1  0.64420254  0.94983088  0.91527482  1
  Se  Se27  1  0.14420254  0.05016912  0.58472518  1
  Se  Se28  1  0.62240273  0.75000000  0.67480913  1
  Se  Se29  1  0.12240273  0.25000000  0.82519087  1
  Se  Se30  1  0.37759727  0.25000000  0.32519087  1
  Se  Se31  1  0.87759727  0.75000000  0.17480913  1
  Sn  Sn32  1  0.75995550  0.75000000  0.33418154  1
  Sn  Sn33  1  0.24004450  0.25000000  0.66581846  1
  Sn  Sn34  1  0.74004450  0.75000000  0.83418154  1
  Sn  Sn35  1  0.25995550  0.25000000  0.16581846  1
