# generated using pymatgen
data_Ag(AuF4)2
_symmetry_space_group_name_H-M   'P 1'
_cell_length_a   5.54118685
_cell_length_b   5.67209453
_cell_length_c   11.38463810
_cell_angle_alpha   90.00000000
_cell_angle_beta   90.00000000
_cell_angle_gamma   93.88389858
_symmetry_Int_Tables_number   1
_chemical_formula_structural   Ag(AuF4)2
_chemical_formula_sum   'Ag2 Au4 F16'
_cell_volume   356.99893187
_cell_formula_units_Z   2
loop_
 _symmetry_equiv_pos_site_id
 _symmetry_equiv_pos_as_xyz
  1  'x, y, z'
loop_
 _atom_site_type_symbol
 _atom_site_label
 _atom_site_symmetry_multiplicity
 _atom_site_fract_x
 _atom_site_fract_y
 _atom_site_fract_z
 _atom_site_occupancy
  F  F0  1  0.28779768  0.72981310  0.77477472  1
  F  F1  1  0.21220232  0.77018690  0.27477472  1
  F  F2  1  0.71220232  0.27018690  0.22522528  1
  F  F3  1  0.78779768  0.22981310  0.72522528  1
  F  F4  1  0.30402614  0.19466629  0.82608197  1
  F  F5  1  0.19597386  0.30533371  0.32608197  1
  F  F6  1  0.77545078  0.81048534  0.91319846  1
  F  F7  1  0.72454922  0.68951466  0.41319846  1
  F  F8  1  0.22454922  0.18951466  0.08680154  1
  F  F9  1  0.27545078  0.31048534  0.58680154  1
  F  F10  1  0.73450905  0.32995141  0.96825583  1
  F  F11  1  0.76549095  0.17004859  0.46825583  1
  F  F12  1  0.26549095  0.67004859  0.03174417  1
  F  F13  1  0.23450905  0.82995141  0.53174417  1
  F  F14  1  0.80402614  0.69466629  0.67391803  1
  F  F15  1  0.69597386  0.80533371  0.17391803  1
  Ag  Ag16  1  0.00000000  0.50000000  0.50000000  1
  Ag  Ag17  1  0.50000000  0.00000000  0.00000000  1
  Au  Au18  1  0.73109863  0.98677950  0.31978192  1
  Au  Au19  1  0.76890137  0.51322050  0.81978192  1
  Au  Au20  1  0.23109863  0.48677950  0.18021808  1
  Au  Au21  1  0.26890137  0.01322050  0.68021808  1
