# generated using pymatgen
data_K3TaS4
_symmetry_space_group_name_H-M   'P 1'
_cell_length_a   9.37747818
_cell_length_b   9.61136354
_cell_length_c   10.91136967
_cell_angle_alpha   90.00000000
_cell_angle_beta   90.00000000
_cell_angle_gamma   90.00000000
_symmetry_Int_Tables_number   1
_chemical_formula_structural   K3TaS4
_chemical_formula_sum   'K12 Ta4 S16'
_cell_volume   983.44558781
_cell_formula_units_Z   4
loop_
 _symmetry_equiv_pos_site_id
 _symmetry_equiv_pos_as_xyz
  1  'x, y, z'
loop_
 _atom_site_type_symbol
 _atom_site_label
 _atom_site_symmetry_multiplicity
 _atom_site_fract_x
 _atom_site_fract_y
 _atom_site_fract_z
 _atom_site_occupancy
  S  S0  1  0.16609113  0.55120110  0.92295742  1
  S  S1  1  0.66609113  0.94879890  0.57704258  1
  S  S2  1  0.33390887  0.05120110  0.07704258  1
  S  S3  1  0.83390887  0.44879890  0.42295742  1
  S  S4  1  0.83390887  0.44879890  0.07704258  1
  S  S5  1  0.33390887  0.05120110  0.42295742  1
  S  S6  1  0.66609113  0.94879890  0.92295742  1
  S  S7  1  0.16609113  0.55120110  0.57704258  1
  S  S8  1  0.68783470  0.74897888  0.25000000  1
  S  S9  1  0.18783470  0.75102112  0.25000000  1
  S  S10  1  0.81216530  0.24897888  0.75000000  1
  S  S11  1  0.31216530  0.25102112  0.75000000  1
  S  S12  1  0.49184337  0.41123566  0.25000000  1
  S  S13  1  0.50815663  0.58876434  0.75000000  1
  S  S14  1  0.00815663  0.91123566  0.75000000  1
  S  S15  1  0.99184337  0.08876434  0.25000000  1
  K  K16  1  0.56098936  0.28701726  0.95474172  1
  K  K17  1  0.13272704  0.42565309  0.25000000  1
  K  K18  1  0.86727296  0.57434691  0.75000000  1
  K  K19  1  0.36727296  0.92565309  0.75000000  1
  K  K20  1  0.43901064  0.71298274  0.04525828  1
  K  K21  1  0.93901064  0.78701726  0.45474172  1
  K  K22  1  0.06098936  0.21298274  0.95474172  1
  K  K23  1  0.56098936  0.28701726  0.54525828  1
  K  K24  1  0.43901064  0.71298274  0.45474172  1
  K  K25  1  0.06098936  0.21298274  0.54525828  1
  K  K26  1  0.93901064  0.78701726  0.04525828  1
  K  K27  1  0.63272704  0.07434691  0.25000000  1
  Ta  Ta28  1  0.71301899  0.51193490  0.25000000  1
  Ta  Ta29  1  0.21301899  0.98806510  0.25000000  1
  Ta  Ta30  1  0.78698101  0.01193490  0.75000000  1
  Ta  Ta31  1  0.28698101  0.48806510  0.75000000  1
