# generated using pymatgen
data_Ca(Al5Cr)2
_symmetry_space_group_name_H-M   'P 1'
_cell_length_a   5.15916053
_cell_length_b   12.87810577
_cell_length_c   12.87810577
_cell_angle_alpha   90.00000000
_cell_angle_beta   90.00000000
_cell_angle_gamma   90.00000000
_symmetry_Int_Tables_number   1
_chemical_formula_structural   Ca(Al5Cr)2
_chemical_formula_sum   'Ca4 Al40 Cr8'
_cell_volume   855.62411602
_cell_formula_units_Z   4
loop_
 _symmetry_equiv_pos_site_id
 _symmetry_equiv_pos_as_xyz
  1  'x, y, z'
loop_
 _atom_site_type_symbol
 _atom_site_label
 _atom_site_symmetry_multiplicity
 _atom_site_fract_x
 _atom_site_fract_y
 _atom_site_fract_z
 _atom_site_occupancy
  Al  Al0  1  0.00000000  0.92419593  0.42419593  1
  Al  Al1  1  0.00000000  0.07580407  0.92419593  1
  Al  Al2  1  0.00000000  0.42419593  0.57580407  1
  Al  Al3  1  0.00000000  0.57580407  0.07580407  1
  Al  Al4  1  0.00000000  0.07580407  0.57580407  1
  Al  Al5  1  0.00000000  0.92419593  0.07580407  1
  Al  Al6  1  0.00000000  0.57580407  0.42419593  1
  Al  Al7  1  0.00000000  0.42419593  0.92419593  1
  Al  Al8  1  0.50000000  0.36356601  0.86356601  1
  Al  Al9  1  0.50000000  0.63643399  0.36356601  1
  Al  Al10  1  0.50000000  0.86356601  0.13643399  1
  Al  Al11  1  0.50000000  0.13643399  0.63643399  1
  Al  Al12  1  0.50000000  0.63643399  0.13643399  1
  Al  Al13  1  0.50000000  0.36356601  0.63643399  1
  Al  Al14  1  0.50000000  0.13643399  0.86356601  1
  Al  Al15  1  0.50000000  0.86356601  0.36356601  1
  Al  Al16  1  0.74887537  0.25000000  0.48889712  1
  Al  Al17  1  0.74887537  0.01110288  0.25000000  1
  Al  Al18  1  0.74887537  0.48889712  0.25000000  1
  Al  Al19  1  0.74887537  0.25000000  0.01110288  1
  Al  Al20  1  0.25112463  0.75000000  0.51110288  1
  Al  Al21  1  0.25112463  0.75000000  0.98889712  1
  Al  Al22  1  0.25112463  0.98889712  0.75000000  1
  Al  Al23  1  0.25112463  0.51110288  0.75000000  1
  Al  Al24  1  0.03685491  0.35920683  0.35920683  1
  Al  Al25  1  0.03685491  0.14079317  0.35920683  1
  Al  Al26  1  0.03685491  0.35920683  0.14079317  1
  Al  Al27  1  0.03685491  0.14079317  0.14079317  1
  Al  Al28  1  0.96314509  0.85920683  0.64079317  1
  Al  Al29  1  0.96314509  0.64079317  0.85920683  1
  Al  Al30  1  0.96314509  0.85920683  0.85920683  1
  Al  Al31  1  0.96314509  0.64079317  0.64079317  1
  Al  Al32  1  0.48142695  0.42463694  0.42463694  1
  Al  Al33  1  0.48142695  0.07536306  0.42463694  1
  Al  Al34  1  0.48142695  0.42463694  0.07536306  1
  Al  Al35  1  0.48142695  0.07536306  0.07536306  1
  Al  Al36  1  0.51857305  0.92463694  0.57536306  1
  Al  Al37  1  0.51857305  0.57536306  0.92463694  1
  Al  Al38  1  0.51857305  0.92463694  0.92463694  1
  Al  Al39  1  0.51857305  0.57536306  0.57536306  1
  Ca  Ca40  1  0.00000000  0.25000000  0.75000000  1
  Ca  Ca41  1  0.00000000  0.75000000  0.25000000  1
  Ca  Ca42  1  0.51884616  0.25000000  0.25000000  1
  Ca  Ca43  1  0.48115384  0.75000000  0.75000000  1
  Cr  Cr44  1  0.25380789  0.25000000  0.99040595  1
  Cr  Cr45  1  0.25380789  0.50959405  0.25000000  1
  Cr  Cr46  1  0.25380789  0.99040595  0.25000000  1
  Cr  Cr47  1  0.25380789  0.25000000  0.50959405  1
  Cr  Cr48  1  0.74619211  0.75000000  0.00959405  1
  Cr  Cr49  1  0.74619211  0.75000000  0.49040595  1
  Cr  Cr50  1  0.74619211  0.49040595  0.75000000  1
  Cr  Cr51  1  0.74619211  0.00959405  0.75000000  1
