# generated using pymatgen
data_K2Sn2Hg3S8
_symmetry_space_group_name_H-M   'P 1'
_cell_length_a   6.71082020
_cell_length_b   6.71082020
_cell_length_c   20.04598264
_cell_angle_alpha   90.00000000
_cell_angle_beta   90.00000000
_cell_angle_gamma   96.70864564
_symmetry_Int_Tables_number   1
_chemical_formula_structural   K2Sn2Hg3S8
_chemical_formula_sum   'K4 Sn4 Hg6 S16'
_cell_volume   896.59173189
_cell_formula_units_Z   2
loop_
 _symmetry_equiv_pos_site_id
 _symmetry_equiv_pos_as_xyz
  1  'x, y, z'
loop_
 _atom_site_type_symbol
 _atom_site_label
 _atom_site_symmetry_multiplicity
 _atom_site_fract_x
 _atom_site_fract_y
 _atom_site_fract_z
 _atom_site_occupancy
  S  S0  1  0.76944238  0.59837895  0.36702412  1
  S  S1  1  0.59837895  0.76944238  0.63297588  1
  S  S2  1  0.26944238  0.09837895  0.13297588  1
  S  S3  1  0.09837895  0.26944238  0.86702412  1
  S  S4  1  0.67332138  0.69772453  0.12813905  1
  S  S5  1  0.69772453  0.67332138  0.87186095  1
  S  S6  1  0.17332138  0.19772453  0.37186095  1
  S  S7  1  0.19772453  0.17332138  0.62813905  1
  S  S8  1  0.76024162  0.21536321  0.03294365  1
  S  S9  1  0.21536321  0.76024162  0.96705635  1
  S  S10  1  0.26024162  0.71536321  0.46705635  1
  S  S11  1  0.71536321  0.26024162  0.53294365  1
  S  S12  1  0.77901482  0.20414033  0.23287677  1
  S  S13  1  0.20414033  0.77901482  0.76712323  1
  S  S14  1  0.70414033  0.27901482  0.73287677  1
  S  S15  1  0.27901482  0.70414033  0.26712323  1
  K  K16  1  0.14041120  0.55289659  0.11771752  1
  K  K17  1  0.55289659  0.14041120  0.88228248  1
  K  K18  1  0.64041120  0.05289659  0.38228248  1
  K  K19  1  0.05289659  0.64041120  0.61771752  1
  Sn  Sn20  1  0.62461557  0.05128970  0.13603528  1
  Sn  Sn21  1  0.05128970  0.62461557  0.86396472  1
  Sn  Sn22  1  0.12461557  0.55128970  0.36396472  1
  Sn  Sn23  1  0.55128970  0.12461557  0.63603528  1
  Hg  Hg24  1  0.68727523  0.60812346  0.24701780  1
  Hg  Hg25  1  0.60812346  0.68727523  0.75298220  1
  Hg  Hg26  1  0.18727523  0.10812346  0.25298220  1
  Hg  Hg27  1  0.10812346  0.18727523  0.74701780  1
  Hg  Hg28  1  0.98443104  0.98443104  0.00000000  1
  Hg  Hg29  1  0.48443104  0.48443104  0.50000000  1
