# generated using pymatgen
data_K2WSe4
_symmetry_space_group_name_H-M   'P 1'
_cell_length_a   7.28623837
_cell_length_b   10.01377588
_cell_length_c   12.88111957
_cell_angle_alpha   90.00000000
_cell_angle_beta   90.00000000
_cell_angle_gamma   90.00000000
_symmetry_Int_Tables_number   1
_chemical_formula_structural   K2WSe4
_chemical_formula_sum   'K8 W4 Se16'
_cell_volume   939.84201054
_cell_formula_units_Z   4
loop_
 _symmetry_equiv_pos_site_id
 _symmetry_equiv_pos_as_xyz
  1  'x, y, z'
loop_
 _atom_site_type_symbol
 _atom_site_label
 _atom_site_symmetry_multiplicity
 _atom_site_fract_x
 _atom_site_fract_y
 _atom_site_fract_z
 _atom_site_occupancy
  K  K0  1  0.75000000  0.54860235  0.65534077  1
  K  K1  1  0.25000000  0.45139765  0.34465923  1
  K  K2  1  0.75000000  0.04860235  0.84465923  1
  K  K3  1  0.25000000  0.95139765  0.15534077  1
  K  K4  1  0.75000000  0.84726603  0.38671335  1
  K  K5  1  0.25000000  0.15273397  0.61328665  1
  K  K6  1  0.75000000  0.34726603  0.11328665  1
  K  K7  1  0.25000000  0.65273397  0.88671335  1
  Se  Se8  1  0.25000000  0.77797678  0.38652372  1
  Se  Se9  1  0.25000000  0.27797678  0.11347628  1
  Se  Se10  1  0.75000000  0.72202322  0.88652372  1
  Se  Se11  1  0.75000000  0.98066116  0.11121641  1
  Se  Se12  1  0.75000000  0.48066116  0.38878359  1
  Se  Se13  1  0.25000000  0.51933884  0.61121641  1
  Se  Se14  1  0.00802620  0.64878612  0.13721372  1
  Se  Se15  1  0.25000000  0.01933884  0.88878359  1
  Se  Se16  1  0.49197380  0.14878612  0.36278628  1
  Se  Se17  1  0.99197380  0.85121388  0.63721372  1
  Se  Se18  1  0.49197380  0.64878612  0.13721372  1
  Se  Se19  1  0.50802620  0.35121388  0.86278628  1
  Se  Se20  1  0.50802620  0.85121388  0.63721372  1
  Se  Se21  1  0.00802620  0.14878612  0.36278628  1
  Se  Se22  1  0.99197380  0.35121388  0.86278628  1
  Se  Se23  1  0.75000000  0.22202322  0.61347628  1
  W  W24  1  0.75000000  0.25267497  0.43313013  1
  W  W25  1  0.25000000  0.24732503  0.93313013  1
  W  W26  1  0.75000000  0.75267497  0.06686987  1
  W  W27  1  0.25000000  0.74732503  0.56686987  1
