# generated using pymatgen
data_Sr3YbRhO6
_symmetry_space_group_name_H-M   'P 1'
_cell_length_a   6.82492454
_cell_length_b   6.82492454
_cell_length_c   6.82492454
_cell_angle_alpha   91.91760428
_cell_angle_beta   91.91760427
_cell_angle_gamma   91.91760424
_symmetry_Int_Tables_number   1
_chemical_formula_structural   Sr3YbRhO6
_chemical_formula_sum   'Sr6 Yb2 Rh2 O12'
_cell_volume   317.35589674
_cell_formula_units_Z   2
loop_
 _symmetry_equiv_pos_site_id
 _symmetry_equiv_pos_as_xyz
  1  'x, y, z'
loop_
 _atom_site_type_symbol
 _atom_site_label
 _atom_site_symmetry_multiplicity
 _atom_site_fract_x
 _atom_site_fract_y
 _atom_site_fract_z
 _atom_site_occupancy
  O  O0  1  0.78643962  0.58348500  0.45152183  1
  O  O1  1  0.58348500  0.45152183  0.78643962  1
  O  O2  1  0.45152183  0.78643962  0.58348500  1
  O  O3  1  0.04847817  0.91651500  0.71356038  1
  O  O4  1  0.91651500  0.71356038  0.04847817  1
  O  O5  1  0.71356038  0.04847817  0.91651500  1
  O  O6  1  0.21356038  0.41651500  0.54847817  1
  O  O7  1  0.41651500  0.54847817  0.21356038  1
  O  O8  1  0.54847817  0.21356038  0.41651500  1
  O  O9  1  0.95152183  0.08348500  0.28643962  1
  O  O10  1  0.28643962  0.95152183  0.08348500  1
  O  O11  1  0.08348500  0.28643962  0.95152183  1
  Sr  Sr12  1  0.61484198  0.88515802  0.25000000  1
  Sr  Sr13  1  0.25000000  0.61484198  0.88515802  1
  Sr  Sr14  1  0.88515802  0.25000000  0.61484198  1
  Sr  Sr15  1  0.38515802  0.11484198  0.75000000  1
  Sr  Sr16  1  0.11484198  0.75000000  0.38515802  1
  Sr  Sr17  1  0.75000000  0.38515802  0.11484198  1
  Rh  Rh18  1  0.50000000  0.50000000  0.50000000  1
  Rh  Rh19  1  0.00000000  0.00000000  0.00000000  1
  Yb  Yb20  1  0.75000000  0.75000000  0.75000000  1
  Yb  Yb21  1  0.25000000  0.25000000  0.25000000  1
