# generated using pymatgen
data_LiNiPO4
_symmetry_space_group_name_H-M   'P 1'
_cell_length_a   4.97050778
_cell_length_b   4.97050778
_cell_length_c   15.40170798
_cell_angle_alpha   93.43726827
_cell_angle_beta   86.56273173
_cell_angle_gamma   105.20608650
_symmetry_Int_Tables_number   1
_chemical_formula_structural   LiNiPO4
_chemical_formula_sum   'Li4 Ni4 P4 O16'
_cell_volume   366.14432321
_cell_formula_units_Z   4
loop_
 _symmetry_equiv_pos_site_id
 _symmetry_equiv_pos_as_xyz
  1  'x, y, z'
loop_
 _atom_site_type_symbol
 _atom_site_label
 _atom_site_symmetry_multiplicity
 _atom_site_fract_x
 _atom_site_fract_y
 _atom_site_fract_z
 _atom_site_occupancy
  Li  Li0  1  0.33093508  0.78606478  0.72949607  1
  Li  Li1  1  0.21393522  0.66906492  0.22949607  1
  Li  Li2  1  0.78606478  0.33093508  0.77050393  1
  Li  Li3  1  0.66906492  0.21393522  0.27050393  1
  Ni  Ni4  1  0.62337269  0.92959134  0.91148174  1
  Ni  Ni5  1  0.92959134  0.62337269  0.58851826  1
  Ni  Ni6  1  0.07040866  0.37662831  0.41148174  1
  Ni  Ni7  1  0.37662831  0.07040866  0.08851826  1
  P  P8  1  0.26491497  0.29906773  0.62283139  1
  P  P9  1  0.29906773  0.26491497  0.87716861  1
  P  P10  1  0.70093227  0.73508503  0.12283139  1
  P  P11  1  0.73508503  0.70093227  0.37716861  1
  O  O12  1  0.08393955  0.43843009  0.68900227  1
  O  O13  1  0.56156991  0.91606045  0.18900227  1
  O  O14  1  0.98137377  0.20274949  0.86900809  1
  O  O15  1  0.44476891  0.56874927  0.85610425  1
  O  O16  1  0.18304063  0.37727801  0.53365129  1
  O  O17  1  0.79725051  0.01862623  0.36900809  1
  O  O18  1  0.43125073  0.55523109  0.35610425  1
  O  O19  1  0.62272199  0.81695937  0.03365129  1
  O  O20  1  0.37727801  0.18304063  0.96634871  1
  O  O21  1  0.56874927  0.44476891  0.64389575  1
  O  O22  1  0.20274949  0.98137377  0.63099191  1
  O  O23  1  0.81695937  0.62272199  0.46634871  1
  O  O24  1  0.55523109  0.43125073  0.14389575  1
  O  O25  1  0.01862623  0.79725051  0.13099191  1
  O  O26  1  0.43843009  0.08393955  0.81099773  1
  O  O27  1  0.91606045  0.56156991  0.31099773  1
