# generated using pymatgen
data_Tb3S3N
_symmetry_space_group_name_H-M   'P 1'
_cell_length_a   3.85133704
_cell_length_b   12.01223243
_cell_length_c   12.97669816
_cell_angle_alpha   90.00000000
_cell_angle_beta   90.00000000
_cell_angle_gamma   90.00000000
_symmetry_Int_Tables_number   1
_chemical_formula_structural   Tb3S3N
_chemical_formula_sum   'Tb12 S12 N4'
_cell_volume   600.34300733
_cell_formula_units_Z   4
loop_
 _symmetry_equiv_pos_site_id
 _symmetry_equiv_pos_as_xyz
  1  'x, y, z'
loop_
 _atom_site_type_symbol
 _atom_site_label
 _atom_site_symmetry_multiplicity
 _atom_site_fract_x
 _atom_site_fract_y
 _atom_site_fract_z
 _atom_site_occupancy
  N  N0  1  0.75000000  0.46576537  0.29864030  1
  N  N1  1  0.25000000  0.03423463  0.79864030  1
  N  N2  1  0.75000000  0.96576537  0.20135970  1
  N  N3  1  0.25000000  0.53423463  0.70135970  1
  S  S4  1  0.75000000  0.22365686  0.69213686  1
  S  S5  1  0.75000000  0.40617034  0.90026839  1
  S  S6  1  0.25000000  0.09382966  0.40026839  1
  S  S7  1  0.25000000  0.59382966  0.09973161  1
  S  S8  1  0.25000000  0.36686589  0.49035101  1
  S  S9  1  0.75000000  0.63313411  0.50964899  1
  S  S10  1  0.25000000  0.86686589  0.00964899  1
  S  S11  1  0.75000000  0.13313411  0.99035101  1
  S  S12  1  0.25000000  0.77634314  0.30786314  1
  S  S13  1  0.75000000  0.72365686  0.80786314  1
  S  S14  1  0.25000000  0.27634314  0.19213686  1
  S  S15  1  0.75000000  0.90617034  0.59973161  1
  Tb  Tb16  1  0.25000000  0.04826283  0.14246541  1
  Tb  Tb17  1  0.75000000  0.95173717  0.85753459  1
  Tb  Tb18  1  0.25000000  0.54826283  0.35753459  1
  Tb  Tb19  1  0.75000000  0.45173717  0.64246541  1
  Tb  Tb20  1  0.25000000  0.21140735  0.85963848  1
  Tb  Tb21  1  0.75000000  0.78859265  0.14036152  1
  Tb  Tb22  1  0.25000000  0.71140735  0.64036152  1
  Tb  Tb23  1  0.75000000  0.28859265  0.35963848  1
  Tb  Tb24  1  0.25000000  0.56538447  0.86748010  1
  Tb  Tb25  1  0.75000000  0.43461553  0.13251990  1
  Tb  Tb26  1  0.25000000  0.06538447  0.63251990  1
  Tb  Tb27  1  0.75000000  0.93461553  0.36748010  1
