# generated using pymatgen
data_KBaPSe4
_symmetry_space_group_name_H-M   'P 1'
_cell_length_a   7.12018526
_cell_length_b   10.31586364
_cell_length_c   12.71452349
_cell_angle_alpha   90.00000000
_cell_angle_beta   90.00000000
_cell_angle_gamma   90.00000000
_symmetry_Int_Tables_number   1
_chemical_formula_structural   KBaPSe4
_chemical_formula_sum   'K4 Ba4 P4 Se16'
_cell_volume   933.89268780
_cell_formula_units_Z   4
loop_
 _symmetry_equiv_pos_site_id
 _symmetry_equiv_pos_as_xyz
  1  'x, y, z'
loop_
 _atom_site_type_symbol
 _atom_site_label
 _atom_site_symmetry_multiplicity
 _atom_site_fract_x
 _atom_site_fract_y
 _atom_site_fract_z
 _atom_site_occupancy
  P  P0  1  0.25000000  0.60435132  0.32645998  1
  P  P1  1  0.75000000  0.39564868  0.67354002  1
  P  P2  1  0.75000000  0.10435132  0.17354002  1
  P  P3  1  0.25000000  0.89564868  0.82645998  1
  K  K4  1  0.25000000  0.33337582  0.13041850  1
  K  K5  1  0.75000000  0.66662418  0.86958150  1
  K  K6  1  0.75000000  0.83337582  0.36958150  1
  K  K7  1  0.25000000  0.16662418  0.63041850  1
  Se  Se8  1  0.25000000  0.07569509  0.92378023  1
  Se  Se9  1  0.75000000  0.92430491  0.07621977  1
  Se  Se10  1  0.75000000  0.57569509  0.57621977  1
  Se  Se11  1  0.25000000  0.42430491  0.42378023  1
  Se  Se12  1  0.25000000  0.78679017  0.41949251  1
  Se  Se13  1  0.75000000  0.21320983  0.58050749  1
  Se  Se14  1  0.75000000  0.28679017  0.08050749  1
  Se  Se15  1  0.25000000  0.71320983  0.91949251  1
  Se  Se16  1  0.00135926  0.10597355  0.27702860  1
  Se  Se17  1  0.50135926  0.89402645  0.72297140  1
  Se  Se18  1  0.99864074  0.60597355  0.22297140  1
  Se  Se19  1  0.49864074  0.39402645  0.77702860  1
  Se  Se20  1  0.99864074  0.89402645  0.72297140  1
  Se  Se21  1  0.49864074  0.10597355  0.27702860  1
  Se  Se22  1  0.00135926  0.39402645  0.77702860  1
  Se  Se23  1  0.50135926  0.60597355  0.22297140  1
  Ba  Ba24  1  0.25000000  0.61932580  0.64209132  1
  Ba  Ba25  1  0.75000000  0.38067420  0.35790868  1
  Ba  Ba26  1  0.75000000  0.11932580  0.85790868  1
  Ba  Ba27  1  0.25000000  0.88067420  0.14209132  1
