# generated using pymatgen
data_K3Lu(PO4)2
_symmetry_space_group_name_H-M   'P 1'
_cell_length_a   9.68739049
_cell_length_b   9.68739049
_cell_length_c   7.84907777
_cell_angle_alpha   90.00000000
_cell_angle_beta   90.00000000
_cell_angle_gamma   120.00000000
_symmetry_Int_Tables_number   1
_chemical_formula_structural   K3Lu(PO4)2
_chemical_formula_sum   'K9 Lu3 P6 O24'
_cell_volume   637.91509105
_cell_formula_units_Z   3
loop_
 _symmetry_equiv_pos_site_id
 _symmetry_equiv_pos_as_xyz
  1  'x, y, z'
loop_
 _atom_site_type_symbol
 _atom_site_label
 _atom_site_symmetry_multiplicity
 _atom_site_fract_x
 _atom_site_fract_y
 _atom_site_fract_z
 _atom_site_occupancy
  O  O0  1  0.33720682  0.47868567  0.88479836  1
  O  O1  1  0.14147885  0.66279318  0.88479836  1
  O  O2  1  0.52131433  0.85852115  0.88479836  1
  O  O3  1  0.66279318  0.52131433  0.11520164  1
  O  O4  1  0.85852115  0.33720682  0.11520164  1
  O  O5  1  0.47868567  0.14147885  0.11520164  1
  O  O6  1  0.48529023  0.33529019  0.79329904  1
  O  O7  1  0.84999996  0.51470977  0.79329904  1
  O  O8  1  0.66470981  0.15000004  0.79329904  1
  O  O9  1  0.51470977  0.66470981  0.20670096  1
  O  O10  1  0.15000004  0.48529023  0.20670096  1
  O  O11  1  0.33529019  0.84999996  0.20670096  1
  O  O12  1  0.18535190  0.17838378  0.83437835  1
  O  O13  1  0.99303188  0.81464810  0.83437835  1
  O  O14  1  0.82161622  0.00696812  0.83437835  1
  O  O15  1  0.81464810  0.82161622  0.16562165  1
  O  O16  1  0.00696812  0.18535190  0.16562165  1
  O  O17  1  0.17838378  0.99303188  0.16562165  1
  O  O18  1  0.36953659  0.06988968  0.41362954  1
  O  O19  1  0.93011032  0.29964690  0.41362954  1
  O  O20  1  0.70035310  0.63046341  0.41362954  1
  O  O21  1  0.63046341  0.93011032  0.58637046  1
  O  O22  1  0.06988968  0.70035310  0.58637046  1
  O  O23  1  0.29964690  0.36953659  0.58637046  1
  P  P24  1  0.32753228  0.34083560  0.77152973  1
  P  P25  1  0.01330332  0.67246772  0.77152973  1
  P  P26  1  0.65916440  0.98669668  0.77152973  1
  P  P27  1  0.67246772  0.65916440  0.22847027  1
  P  P28  1  0.98669668  0.32753228  0.22847027  1
  P  P29  1  0.34083560  0.01330332  0.22847027  1
  K  K30  1  0.33409110  0.33352511  0.25569863  1
  K  K31  1  0.99943401  0.66590890  0.25569863  1
  K  K32  1  0.66647489  0.00056599  0.25569863  1
  K  K33  1  0.66590890  0.66647489  0.74430137  1
  K  K34  1  0.00056599  0.33409110  0.74430137  1
  K  K35  1  0.33352511  0.99943401  0.74430137  1
  K  K36  1  0.33333333  0.66666667  0.50455613  1
  K  K37  1  0.66666667  0.33333333  0.49544387  1
  K  K38  1  0.00000000  0.00000000  0.50000000  1
  Lu  Lu39  1  0.33333333  0.66666667  0.03286332  1
  Lu  Lu40  1  0.66666667  0.33333333  0.96713668  1
  Lu  Lu41  1  0.00000000  0.00000000  0.00000000  1
