# generated using pymatgen
data_YSnF7
_symmetry_space_group_name_H-M   'P 1'
_cell_length_a   5.67851676
_cell_length_b   9.00543598
_cell_length_c   11.28391561
_cell_angle_alpha   107.56596797
_cell_angle_beta   90.00000000
_cell_angle_gamma   90.00000000
_symmetry_Int_Tables_number   1
_chemical_formula_structural   YSnF7
_chemical_formula_sum   'Y4 Sn4 F28'
_cell_volume   550.12453095
_cell_formula_units_Z   4
loop_
 _symmetry_equiv_pos_site_id
 _symmetry_equiv_pos_as_xyz
  1  'x, y, z'
loop_
 _atom_site_type_symbol
 _atom_site_label
 _atom_site_symmetry_multiplicity
 _atom_site_fract_x
 _atom_site_fract_y
 _atom_site_fract_z
 _atom_site_occupancy
  F  F0  1  0.54531373  0.37343215  0.08055241  1
  F  F1  1  0.04531373  0.12656785  0.41944759  1
  F  F2  1  0.45468627  0.62656785  0.91944759  1
  F  F3  1  0.95468627  0.87343215  0.58055241  1
  F  F4  1  0.55034465  0.17276522  0.45369107  1
  F  F5  1  0.05034465  0.32723478  0.04630893  1
  F  F6  1  0.44965535  0.82723478  0.54630893  1
  F  F7  1  0.94965535  0.67276522  0.95369107  1
  F  F8  1  0.22816492  0.62017271  0.14120502  1
  F  F9  1  0.72816492  0.87982729  0.35879498  1
  F  F10  1  0.77183508  0.37982729  0.85879498  1
  F  F11  1  0.27183508  0.12017271  0.64120502  1
  F  F12  1  0.24142152  0.92277354  0.94641144  1
  F  F13  1  0.74142152  0.57722646  0.55358856  1
  F  F14  1  0.75857848  0.07722646  0.05358856  1
  F  F15  1  0.25857848  0.42277354  0.44641144  1
  F  F16  1  0.02015093  0.62555937  0.35537901  1
  F  F17  1  0.52015093  0.87444063  0.14462099  1
  F  F18  1  0.97984907  0.37444063  0.64462099  1
  F  F19  1  0.47984907  0.12555937  0.85537901  1
  F  F20  1  0.95933719  0.08213855  0.82712131  1
  F  F21  1  0.45933719  0.41786145  0.67287869  1
  F  F22  1  0.04066281  0.91786145  0.17287869  1
  F  F23  1  0.54066281  0.58213855  0.32712131  1
  F  F24  1  0.57617198  0.79399859  0.76569962  1
  F  F25  1  0.07617198  0.70600141  0.73430038  1
  F  F26  1  0.42382802  0.20600141  0.23430038  1
  F  F27  1  0.92382802  0.29399859  0.26569962  1
  Y  Y28  1  0.24221183  0.42078042  0.23442959  1
  Y  Y29  1  0.74221183  0.07921958  0.26557041  1
  Y  Y30  1  0.75778817  0.57921958  0.76557041  1
  Y  Y31  1  0.25778817  0.92078042  0.73442959  1
  Sn  Sn32  1  0.24321180  0.77083154  0.04341227  1
  Sn  Sn33  1  0.74321180  0.72916846  0.45658773  1
  Sn  Sn34  1  0.75678820  0.22916846  0.95658773  1
  Sn  Sn35  1  0.25678820  0.27083154  0.54341227  1
