# generated using pymatgen
data_Sr3Sn5
_symmetry_space_group_name_H-M   'P 1'
_cell_length_a   6.85268621
_cell_length_b   6.85268621
_cell_length_c   11.05599431
_cell_angle_alpha   90.00000000
_cell_angle_beta   90.00000000
_cell_angle_gamma   100.05820409
_symmetry_Int_Tables_number   1
_chemical_formula_structural   Sr3Sn5
_chemical_formula_sum   'Sr6 Sn10'
_cell_volume   511.20245847
_cell_formula_units_Z   2
loop_
 _symmetry_equiv_pos_site_id
 _symmetry_equiv_pos_as_xyz
  1  'x, y, z'
loop_
 _atom_site_type_symbol
 _atom_site_label
 _atom_site_symmetry_multiplicity
 _atom_site_fract_x
 _atom_site_fract_y
 _atom_site_fract_z
 _atom_site_occupancy
  Sr  Sr0  1  0.61147518  0.61147518  0.25000000  1
  Sr  Sr1  1  0.38852482  0.38852482  0.75000000  1
  Sr  Sr2  1  0.78883506  0.21116494  0.50000000  1
  Sr  Sr3  1  0.78883506  0.21116494  0.00000000  1
  Sr  Sr4  1  0.21116494  0.78883506  0.50000000  1
  Sr  Sr5  1  0.21116494  0.78883506  -0.00000000  1
  Sn  Sn6  1  0.02639005  0.02639005  0.25000000  1
  Sn  Sn7  1  0.97360995  0.97360995  0.75000000  1
  Sn  Sn8  1  0.29014212  0.29014212  0.05281038  1
  Sn  Sn9  1  0.70985788  0.70985788  0.94718962  1
  Sn  Sn10  1  0.29014212  0.29014212  0.44718962  1
  Sn  Sn11  1  0.70985788  0.70985788  0.55281038  1
  Sn  Sn12  1  0.07350278  0.48855112  0.25000000  1
  Sn  Sn13  1  0.51144888  0.92649722  0.75000000  1
  Sn  Sn14  1  0.92649722  0.51144888  0.75000000  1
  Sn  Sn15  1  0.48855112  0.07350278  0.25000000  1
