# generated using pymatgen
data_LiNiPO4
_symmetry_space_group_name_H-M   'P 1'
_cell_length_a   5.00599120
_cell_length_b   9.14311844
_cell_length_c   8.11732314
_cell_angle_alpha   90.00000000
_cell_angle_beta   90.00000000
_cell_angle_gamma   89.11208516
_symmetry_Int_Tables_number   1
_chemical_formula_structural   LiNiPO4
_chemical_formula_sum   'Li4 Ni4 P4 O16'
_cell_volume   371.48827460
_cell_formula_units_Z   4
loop_
 _symmetry_equiv_pos_site_id
 _symmetry_equiv_pos_as_xyz
  1  'x, y, z'
loop_
 _atom_site_type_symbol
 _atom_site_label
 _atom_site_symmetry_multiplicity
 _atom_site_fract_x
 _atom_site_fract_y
 _atom_site_fract_z
 _atom_site_occupancy
  Li  Li0  1  0.32388767  0.62246272  0.04478107  1
  Li  Li1  1  0.17611233  0.87753728  0.54478107  1
  Li  Li2  1  0.82388767  0.12246272  0.45521893  1
  Li  Li3  1  0.67611233  0.37753728  0.95521893  1
  Ni  Ni4  1  0.25277829  0.41575274  0.32823252  1
  Ni  Ni5  1  0.24722171  0.08424726  0.82823252  1
  Ni  Ni6  1  0.75277829  0.91575274  0.17176748  1
  Ni  Ni7  1  0.74722171  0.58424726  0.67176748  1
  P  P8  1  0.24488829  0.07462673  0.25161453  1
  P  P9  1  0.25511171  0.42537327  0.75161453  1
  P  P10  1  0.74488829  0.57462673  0.24838547  1
  P  P11  1  0.75511171  0.92537327  0.74838547  1
  O  O12  1  0.03688846  0.55186560  0.18730144  1
  O  O13  1  0.06789790  0.94824054  0.32273383  1
  O  O14  1  0.11667984  0.21663406  0.32276169  1
  O  O15  1  0.26405469  0.42943179  0.56397824  1
  O  O16  1  0.23594531  0.07056821  0.06397824  1
  O  O17  1  0.38332016  0.28336594  0.82276169  1
  O  O18  1  0.43210210  0.55175946  0.82273383  1
  O  O19  1  0.46311154  0.94813440  0.68730144  1
  O  O20  1  0.53688846  0.05186560  0.31269856  1
  O  O21  1  0.56789790  0.44824054  0.17726617  1
  O  O22  1  0.61667984  0.71663406  0.17723831  1
  O  O23  1  0.76405469  0.92943179  0.93602176  1
  O  O24  1  0.73594531  0.57056821  0.43602176  1
  O  O25  1  0.88332016  0.78336594  0.67723831  1
  O  O26  1  0.93210210  0.05175946  0.67726617  1
  O  O27  1  0.96311154  0.44813440  0.81269856  1
