# generated using pymatgen
data_KYbP2O7
_symmetry_space_group_name_H-M   'P 1'
_cell_length_a   7.60098438
_cell_length_b   8.72351073
_cell_length_c   11.23027314
_cell_angle_alpha   90.00000000
_cell_angle_beta   90.00000000
_cell_angle_gamma   105.13623858
_symmetry_Int_Tables_number   1
_chemical_formula_structural   KYbP2O7
_chemical_formula_sum   'K4 Yb4 P8 O28'
_cell_volume   718.81514237
_cell_formula_units_Z   4
loop_
 _symmetry_equiv_pos_site_id
 _symmetry_equiv_pos_as_xyz
  1  'x, y, z'
loop_
 _atom_site_type_symbol
 _atom_site_label
 _atom_site_symmetry_multiplicity
 _atom_site_fract_x
 _atom_site_fract_y
 _atom_site_fract_z
 _atom_site_occupancy
  O  O0  1  0.54035598  0.78502350  0.71812008  1
  O  O1  1  0.45964402  0.71497650  0.21812008  1
  O  O2  1  0.45964402  0.21497650  0.28187992  1
  O  O3  1  0.54035598  0.28502350  0.78187992  1
  O  O4  1  0.36932178  0.78021970  0.91143240  1
  O  O5  1  0.63067822  0.71978030  0.41143240  1
  O  O6  1  0.63067822  0.21978030  0.08856760  1
  O  O7  1  0.36932178  0.28021970  0.58856760  1
  O  O8  1  0.66689266  0.98901272  0.87989277  1
  O  O9  1  0.33310734  0.51098728  0.37989277  1
  O  O10  1  0.33310734  0.01098728  0.12010723  1
  O  O11  1  0.66689266  0.48901272  0.62010723  1
  O  O12  1  0.66201164  0.69853790  0.91199338  1
  O  O13  1  0.33798836  0.80146210  0.41199338  1
  O  O14  1  0.33798836  0.30146210  0.08800662  1
  O  O15  1  0.66201164  0.19853790  0.58800662  1
  O  O16  1  0.88409244  0.02719689  0.59398890  1
  O  O17  1  0.11590756  0.47280311  0.09398890  1
  O  O18  1  0.11590756  0.97280311  0.40601110  1
  O  O19  1  0.88409244  0.52719689  0.90601110  1
  O  O20  1  0.93630621  0.26447932  0.73003407  1
  O  O21  1  0.06369379  0.23552068  0.23003407  1
  O  O22  1  0.06369379  0.73552068  0.26996593  1
  O  O23  1  0.93630621  0.76447932  0.76996593  1
  O  O24  1  0.98145510  0.30117704  0.50555650  1
  O  O25  1  0.01854490  0.19882296  0.00555650  1
  O  O26  1  0.01854490  0.69882296  0.49444350  1
  O  O27  1  0.98145510  0.80117704  0.99444350  1
  P  P28  1  0.55597041  0.82038040  0.85147721  1
  P  P29  1  0.44402959  0.67961960  0.35147721  1
  P  P30  1  0.44402959  0.17961960  0.14852279  1
  P  P31  1  0.55597041  0.32038040  0.64852279  1
  P  P32  1  0.87485119  0.69938613  0.89422606  1
  P  P33  1  0.12514881  0.80061387  0.39422606  1
  P  P34  1  0.12514881  0.30061387  0.10577394  1
  P  P35  1  0.87485119  0.19938613  0.60577394  1
  K  K36  1  0.18414029  0.06714457  0.82687607  1
  K  K37  1  0.81585971  0.43285543  0.32687607  1
  K  K38  1  0.81585971  0.93285543  0.17312393  1
  K  K39  1  0.18414029  0.56714457  0.67312393  1
  Yb  Yb40  1  0.77383135  0.75742601  0.59259947  1
  Yb  Yb41  1  0.22616865  0.74257399  0.09259947  1
  Yb  Yb42  1  0.22616865  0.24257399  0.40740053  1
  Yb  Yb43  1  0.77383135  0.25742601  0.90740053  1
