# generated using pymatgen
data_Tl2TeO6
_symmetry_space_group_name_H-M   'P 1'
_cell_length_a   9.28383042
_cell_length_b   9.28383042
_cell_length_c   5.09060792
_cell_angle_alpha   90.00000000
_cell_angle_beta   90.00000000
_cell_angle_gamma   119.99999999
_symmetry_Int_Tables_number   1
_chemical_formula_structural   Tl2TeO6
_chemical_formula_sum   'Tl6 Te3 O18'
_cell_volume   379.97469806
_cell_formula_units_Z   3
loop_
 _symmetry_equiv_pos_site_id
 _symmetry_equiv_pos_as_xyz
  1  'x, y, z'
loop_
 _atom_site_type_symbol
 _atom_site_label
 _atom_site_symmetry_multiplicity
 _atom_site_fract_x
 _atom_site_fract_y
 _atom_site_fract_z
 _atom_site_occupancy
  O  O0  1  0.75693479  0.22270636  0.70449162  1
  O  O1  1  0.77729364  0.53422843  0.70449162  1
  O  O2  1  0.46577157  0.24306521  0.70449162  1
  O  O3  1  0.53422843  0.77729364  0.29550838  1
  O  O4  1  0.24306521  0.46577157  0.29550838  1
  O  O5  1  0.22270636  0.75693479  0.29550838  1
  O  O6  1  0.59703126  0.46200440  0.26470500  1
  O  O7  1  0.53799560  0.13502686  0.26470500  1
  O  O8  1  0.86497314  0.40296874  0.26470500  1
  O  O9  1  0.07965661  0.87985279  0.78372680  1
  O  O10  1  0.12014721  0.19980382  0.78372680  1
  O  O11  1  0.80019618  0.92034339  0.78372680  1
  O  O12  1  0.19980382  0.12014721  0.21627320  1
  O  O13  1  0.92034339  0.80019618  0.21627320  1
  O  O14  1  0.87985279  0.07965661  0.21627320  1
  O  O15  1  0.46200440  0.59703126  0.73529500  1
  O  O16  1  0.40296874  0.86497314  0.73529500  1
  O  O17  1  0.13502686  0.53799560  0.73529500  1
  Te  Te18  1  0.66666667  0.33333333  0.48547441  1
  Te  Te19  1  0.33333333  0.66666667  0.51452559  1
  Te  Te20  1  0.00000000  0.00000000  0.00000000  1
  Tl  Tl21  1  0.71182749  0.71182749  0.50000000  1
  Tl  Tl22  1  0.00000000  0.28817251  0.50000000  1
  Tl  Tl23  1  0.28817251  0.00000000  0.50000000  1
  Tl  Tl24  1  0.37444587  0.37444587  0.00000000  1
  Tl  Tl25  1  0.00000000  0.62555413  0.00000000  1
  Tl  Tl26  1  0.62555413  0.00000000  0.00000000  1
