# generated using pymatgen
data_CsTe7Mo6
_symmetry_space_group_name_H-M   'P 1'
_cell_length_a   10.47838723
_cell_length_b   10.47838722
_cell_length_c   10.47838722
_cell_angle_alpha   60.23290451
_cell_angle_beta   60.23290449
_cell_angle_gamma   60.23290447
_symmetry_Int_Tables_number   1
_chemical_formula_structural   CsTe7Mo6
_chemical_formula_sum   'Cs2 Te14 Mo12'
_cell_volume   817.80964756
_cell_formula_units_Z   2
loop_
 _symmetry_equiv_pos_site_id
 _symmetry_equiv_pos_as_xyz
  1  'x, y, z'
loop_
 _atom_site_type_symbol
 _atom_site_label
 _atom_site_symmetry_multiplicity
 _atom_site_fract_x
 _atom_site_fract_y
 _atom_site_fract_z
 _atom_site_occupancy
  Mo  Mo0  1  0.28912595  0.11876779  0.99949907  1
  Mo  Mo1  1  0.99949907  0.28912595  0.11876779  1
  Mo  Mo2  1  0.11876779  0.99949907  0.28912595  1
  Mo  Mo3  1  0.71087405  0.88123221  0.00050093  1
  Mo  Mo4  1  0.00050093  0.71087405  0.88123221  1
  Mo  Mo5  1  0.88123221  0.00050093  0.71087405  1
  Mo  Mo6  1  0.05613472  0.18623266  0.89073094  1
  Mo  Mo7  1  0.89073094  0.05613472  0.18623266  1
  Mo  Mo8  1  0.18623266  0.89073094  0.05613472  1
  Mo  Mo9  1  0.94386528  0.81376734  0.10926906  1
  Mo  Mo10  1  0.10926906  0.94386528  0.81376734  1
  Mo  Mo11  1  0.81376734  0.10926906  0.94386528  1
  Te  Te12  1  0.57544774  0.19593034  0.83636095  1
  Te  Te13  1  0.83636095  0.57544774  0.19593034  1
  Te  Te14  1  0.19593034  0.83636095  0.57544774  1
  Te  Te15  1  0.42455226  0.80406966  0.16363905  1
  Te  Te16  1  0.16363905  0.42455226  0.80406966  1
  Te  Te17  1  0.80406966  0.16363905  0.42455226  1
  Te  Te18  1  0.36788020  0.01907173  0.75474309  1
  Te  Te19  1  0.75474309  0.36788020  0.01907173  1
  Te  Te20  1  0.01907173  0.75474309  0.36788020  1
  Te  Te21  1  0.63211980  0.98092827  0.24525691  1
  Te  Te22  1  0.24525691  0.63211980  0.98092827  1
  Te  Te23  1  0.98092827  0.24525691  0.63211980  1
  Te  Te24  1  0.22448937  0.22448937  0.22448937  1
  Te  Te25  1  0.77551063  0.77551063  0.77551063  1
  Cs  Cs26  1  0.37999250  0.37999250  0.37999250  1
  Cs  Cs27  1  0.62000750  0.62000750  0.62000750  1
