# generated using pymatgen
data_CsNa3TiO4
_symmetry_space_group_name_H-M   'P 1'
_cell_length_a   6.61475036
_cell_length_b   8.63947577
_cell_length_c   11.43176928
_cell_angle_alpha   82.67514693
_cell_angle_beta   76.15017858
_cell_angle_gamma   79.67761621
_symmetry_Int_Tables_number   1
_chemical_formula_structural   CsNa3TiO4
_chemical_formula_sum   'Cs4 Na12 Ti4 O16'
_cell_volume   621.59003982
_cell_formula_units_Z   4
loop_
 _symmetry_equiv_pos_site_id
 _symmetry_equiv_pos_as_xyz
  1  'x, y, z'
loop_
 _atom_site_type_symbol
 _atom_site_label
 _atom_site_symmetry_multiplicity
 _atom_site_fract_x
 _atom_site_fract_y
 _atom_site_fract_z
 _atom_site_occupancy
  O  O0  1  0.34708099  0.83814516  0.54186997  1
  O  O1  1  0.65291901  0.16185484  0.45813003  1
  O  O2  1  0.42944721  0.11441163  0.78493203  1
  O  O3  1  0.57055279  0.88558837  0.21506797  1
  O  O4  1  0.18173737  0.71375726  0.80431069  1
  O  O5  1  0.81826263  0.28624274  0.19568931  1
  O  O6  1  0.81720849  0.08360746  0.89728531  1
  O  O7  1  0.18279151  0.91639254  0.10271469  1
  O  O8  1  0.66935794  0.37728403  0.75305417  1
  O  O9  1  0.33064206  0.62271597  0.24694583  1
  O  O10  1  0.58678662  0.69023049  0.00485577  1
  O  O11  1  0.41321338  0.30976951  0.99514423  1
  O  O12  1  0.88755310  0.79827998  0.64522092  1
  O  O13  1  0.79805818  0.48214526  0.41211548  1
  O  O14  1  0.11244690  0.20172002  0.35477908  1
  O  O15  1  0.20194182  0.51785474  0.58788452  1
  Na  Na16  1  0.20367118  0.16627383  0.14508743  1
  Na  Na17  1  0.79632882  0.83372617  0.85491257  1
  Na  Na18  1  0.50487899  0.66584045  0.39262740  1
  Na  Na19  1  0.49512101  0.33415955  0.60737260  1
  Na  Na20  1  0.18251030  0.44639352  0.39623427  1
  Na  Na21  1  0.53932487  0.42967432  0.12539119  1
  Na  Na22  1  0.20471867  0.94251515  0.89588446  1
  Na  Na23  1  0.79528133  0.05748485  0.10411554  1
  Na  Na24  1  0.57067698  0.95617192  0.62517260  1
  Na  Na25  1  0.42932302  0.04382808  0.37482740  1
  Na  Na26  1  0.46067513  0.57032568  0.87460881  1
  Na  Na27  1  0.81748970  0.55360648  0.60376573  1
  Ti  Ti28  1  0.16543397  0.71508654  0.64529433  1
  Ti  Ti29  1  0.83456603  0.28491346  0.35470567  1
  Ti  Ti30  1  0.58016975  0.21282841  0.86234550  1
  Ti  Ti31  1  0.41983025  0.78717159  0.13765450  1
  Cs  Cs32  1  0.04124024  0.13510102  0.62605765  1
  Cs  Cs33  1  0.95875976  0.86489898  0.37394235  1
  Cs  Cs34  1  0.03289054  0.37985716  0.87365672  1
  Cs  Cs35  1  0.96710946  0.62014284  0.12634328  1
