# generated using pymatgen
data_LiTb(PO3)4
_symmetry_space_group_name_H-M   'P 1'
_cell_length_a   7.13538291
_cell_length_b   8.99157285
_cell_length_c   8.98003738
_cell_angle_alpha   65.57152317
_cell_angle_beta   66.59104151
_cell_angle_gamma   66.62286017
_symmetry_Int_Tables_number   1
_chemical_formula_structural   LiTb(PO3)4
_chemical_formula_sum   'Li2 Tb2 P8 O24'
_cell_volume   462.38173257
_cell_formula_units_Z   2
loop_
 _symmetry_equiv_pos_site_id
 _symmetry_equiv_pos_as_xyz
  1  'x, y, z'
loop_
 _atom_site_type_symbol
 _atom_site_label
 _atom_site_symmetry_multiplicity
 _atom_site_fract_x
 _atom_site_fract_y
 _atom_site_fract_z
 _atom_site_occupancy
  Li  Li0  1  0.70628489  0.75000000  0.25000000  1
  Li  Li1  1  0.29371511  0.25000000  0.75000000  1
  O  O2  1  0.82381991  0.31660439  0.46015502  1
  O  O3  1  0.56236641  0.07106833  0.79540639  1
  O  O4  1  0.42884113  0.42893167  0.70459361  1
  O  O5  1  0.43763359  0.92893167  0.20459361  1
  O  O6  1  0.57115887  0.57106833  0.29540639  1
  O  O7  1  0.17487159  0.65201411  0.83837528  1
  O  O8  1  0.66526099  0.84798589  0.66162472  1
  O  O9  1  0.82512841  0.34798589  0.16162472  1
  O  O10  1  0.33473901  0.15201411  0.33837528  1
  O  O11  1  0.78225318  0.76778372  0.92045893  1
  O  O12  1  0.84372824  0.72772344  0.41697653  1
  O  O13  1  0.60057932  0.18339561  0.03984498  1
  O  O14  1  0.17618009  0.68339561  0.53984498  1
  O  O15  1  0.39942068  0.81660439  0.96015502  1
  O  O16  1  0.15627176  0.27227656  0.58302347  1
  O  O17  1  0.01157179  0.22772344  0.91697653  1
  O  O18  1  0.98842821  0.77227656  0.08302347  1
  O  O19  1  0.21774682  0.23221628  0.07954107  1
  O  O20  1  0.24129331  0.47541328  0.27418794  1
  O  O21  1  0.99089453  0.02458672  0.22581206  1
  O  O22  1  0.75870669  0.52458672  0.72581206  1
  O  O23  1  0.00910547  0.97541328  0.77418794  1
  O  O24  1  0.52950417  0.26778372  0.42045893  1
  O  O25  1  0.47049583  0.73221628  0.57954107  1
  P  P26  1  0.58557720  0.88414802  0.84147909  1
  P  P27  1  0.99501436  0.80582179  0.90283880  1
  P  P28  1  0.70367495  0.69417821  0.59716120  1
  P  P29  1  0.00498564  0.19417821  0.09716120  1
  P  P30  1  0.29632505  0.30582179  0.40283880  1
  P  P31  1  0.41442280  0.11585198  0.15852091  1
  P  P32  1  0.31120431  0.61585198  0.65852091  1
  P  P33  1  0.68879569  0.38414802  0.34147909  1
  Tb  Tb34  1  0.20368644  0.75000000  0.25000000  1
  Tb  Tb35  1  0.79631356  0.25000000  0.75000000  1
