# generated using pymatgen
data_Na3GaS3
_symmetry_space_group_name_H-M   'P 1'
_cell_length_a   7.00358773
_cell_length_b   7.24542792
_cell_length_c   12.80369013
_cell_angle_alpha   90.46141519
_cell_angle_beta   90.00000000
_cell_angle_gamma   90.00000000
_symmetry_Int_Tables_number   1
_chemical_formula_structural   Na3GaS3
_chemical_formula_sum   'Na12 Ga4 S12'
_cell_volume   649.68925725
_cell_formula_units_Z   4
loop_
 _symmetry_equiv_pos_site_id
 _symmetry_equiv_pos_as_xyz
  1  'x, y, z'
loop_
 _atom_site_type_symbol
 _atom_site_label
 _atom_site_symmetry_multiplicity
 _atom_site_fract_x
 _atom_site_fract_y
 _atom_site_fract_z
 _atom_site_occupancy
  Na  Na0  1  0.46326387  0.72527444  0.79256880  1
  Na  Na1  1  0.96326387  0.77472556  0.70743120  1
  Na  Na2  1  0.53673613  0.27472556  0.20743120  1
  Na  Na3  1  0.03673613  0.22527444  0.29256880  1
  Na  Na4  1  0.50208930  0.34137351  0.61053787  1
  Na  Na5  1  0.00208930  0.15862649  0.88946213  1
  Na  Na6  1  0.49791070  0.65862649  0.38946213  1
  Na  Na7  1  0.99791070  0.84137351  0.11053787  1
  Na  Na8  1  0.50125107  0.20447581  0.89610162  1
  Na  Na9  1  0.00125107  0.29552419  0.60389838  1
  Na  Na10  1  0.49874893  0.79552419  0.10389838  1
  Na  Na11  1  0.99874893  0.70447581  0.39610162  1
  S  S12  1  0.25750717  0.12440049  0.07171714  1
  S  S13  1  0.24249283  0.62440049  0.57171714  1
  S  S14  1  0.75750717  0.37559951  0.42828286  1
  S  S15  1  0.74249283  0.87559951  0.92828286  1
  S  S16  1  0.69340885  0.92235705  0.57069956  1
  S  S17  1  0.19340885  0.57764295  0.92930044  1
  S  S18  1  0.30659115  0.07764295  0.42930044  1
  S  S19  1  0.80659115  0.42235705  0.07069956  1
  S  S20  1  0.25537055  0.06974920  0.72607051  1
  S  S21  1  0.75537055  0.43025080  0.77392949  1
  S  S22  1  0.74462945  0.93025080  0.27392949  1
  S  S23  1  0.24462945  0.56974920  0.22607051  1
  Ga  Ga24  1  0.64266358  0.08476720  0.41778726  1
  Ga  Ga25  1  0.35733642  0.91523280  0.58221274  1
  Ga  Ga26  1  0.85733642  0.58476720  0.91778726  1
  Ga  Ga27  1  0.14266358  0.41523280  0.08221274  1
