# generated using pymatgen
data_Ba3NbAs3O
_symmetry_space_group_name_H-M   'P 1'
_cell_length_a   6.82036250
_cell_length_b   11.25460668
_cell_length_c   13.67749544
_cell_angle_alpha   90.00000000
_cell_angle_beta   90.00000000
_cell_angle_gamma   90.00000000
_symmetry_Int_Tables_number   1
_chemical_formula_structural   Ba3NbAs3O
_chemical_formula_sum   'Ba12 Nb4 As12 O4'
_cell_volume   1049.89135251
_cell_formula_units_Z   4
loop_
 _symmetry_equiv_pos_site_id
 _symmetry_equiv_pos_as_xyz
  1  'x, y, z'
loop_
 _atom_site_type_symbol
 _atom_site_label
 _atom_site_symmetry_multiplicity
 _atom_site_fract_x
 _atom_site_fract_y
 _atom_site_fract_z
 _atom_site_occupancy
  O  O0  1  0.11855523  0.25000000  0.05338034  1
  O  O1  1  0.61855523  0.25000000  0.44661966  1
  O  O2  1  0.88144477  0.75000000  0.94661966  1
  O  O3  1  0.38144477  0.75000000  0.55338034  1
  As  As4  1  0.27291696  0.25000000  0.63331264  1
  As  As5  1  0.77291696  0.25000000  0.86668736  1
  As  As6  1  0.72708304  0.75000000  0.36668736  1
  As  As7  1  0.22708304  0.75000000  0.13331264  1
  As  As8  1  0.73658001  0.44394174  0.11735488  1
  As  As9  1  0.23658001  0.44394174  0.38264512  1
  As  As10  1  0.26341999  0.94394174  0.88264512  1
  As  As11  1  0.76341999  0.55605826  0.61735488  1
  As  As12  1  0.26341999  0.55605826  0.88264512  1
  As  As13  1  0.76341999  0.94394174  0.61735488  1
  As  As14  1  0.73658001  0.05605826  0.11735488  1
  As  As15  1  0.23658001  0.05605826  0.38264512  1
  Nb  Nb16  1  0.66031792  0.75000000  0.54543708  1
  Nb  Nb17  1  0.33968208  0.25000000  0.45456292  1
  Nb  Nb18  1  0.16031792  0.75000000  0.95456292  1
  Nb  Nb19  1  0.83968208  0.25000000  0.04543708  1
  Ba  Ba20  1  0.24329900  0.04521975  0.13082597  1
  Ba  Ba21  1  0.25670100  0.54521975  0.63082597  1
  Ba  Ba22  1  0.24329900  0.45478025  0.13082597  1
  Ba  Ba23  1  0.74329900  0.04521975  0.36917403  1
  Ba  Ba24  1  0.75670100  0.95478025  0.86917403  1
  Ba  Ba25  1  0.74329900  0.45478025  0.36917403  1
  Ba  Ba26  1  0.75670100  0.54521975  0.86917403  1
  Ba  Ba27  1  0.25670100  0.95478025  0.63082597  1
  Ba  Ba28  1  0.27327186  0.25000000  0.87200650  1
  Ba  Ba29  1  0.77327186  0.25000000  0.62799350  1
  Ba  Ba30  1  0.72672814  0.75000000  0.12799350  1
  Ba  Ba31  1  0.22672814  0.75000000  0.37200650  1
