# generated using pymatgen
data_Sr3TaAs3O
_symmetry_space_group_name_H-M   'P 1'
_cell_length_a   6.45376414
_cell_length_b   10.78407009
_cell_length_c   13.08003677
_cell_angle_alpha   90.00000000
_cell_angle_beta   90.00000000
_cell_angle_gamma   90.00000000
_symmetry_Int_Tables_number   1
_chemical_formula_structural   Sr3TaAs3O
_chemical_formula_sum   'Sr12 Ta4 As12 O4'
_cell_volume   910.34236949
_cell_formula_units_Z   4
loop_
 _symmetry_equiv_pos_site_id
 _symmetry_equiv_pos_as_xyz
  1  'x, y, z'
loop_
 _atom_site_type_symbol
 _atom_site_label
 _atom_site_symmetry_multiplicity
 _atom_site_fract_x
 _atom_site_fract_y
 _atom_site_fract_z
 _atom_site_occupancy
  O  O0  1  0.63461025  0.25000000  0.94546772  1
  O  O1  1  0.13461025  0.25000000  0.55453228  1
  O  O2  1  0.36538975  0.75000000  0.05453228  1
  O  O3  1  0.86538975  0.75000000  0.44546772  1
  As  As4  1  0.23633770  0.75000000  0.63626154  1
  As  As5  1  0.73633770  0.75000000  0.86373846  1
  As  As6  1  0.76366230  0.25000000  0.36373846  1
  As  As7  1  0.26366230  0.25000000  0.13626154  1
  As  As8  1  0.23683404  0.45153812  0.87626805  1
  As  As9  1  0.73683404  0.04846188  0.62373195  1
  As  As10  1  0.23683404  0.04846188  0.87626805  1
  As  As11  1  0.73683404  0.45153812  0.62373195  1
  As  As12  1  0.76316596  0.54846188  0.12373195  1
  As  As13  1  0.26316596  0.54846188  0.37626805  1
  As  As14  1  0.26316596  0.95153812  0.37626805  1
  As  As15  1  0.76316596  0.95153812  0.12373195  1
  Sr  Sr16  1  0.24565207  0.04294607  0.62809909  1
  Sr  Sr17  1  0.74565207  0.45705393  0.87190091  1
  Sr  Sr18  1  0.75434793  0.54294607  0.37190091  1
  Sr  Sr19  1  0.25434793  0.95705393  0.12809909  1
  Sr  Sr20  1  0.24565207  0.45705393  0.62809909  1
  Sr  Sr21  1  0.75434793  0.95705393  0.37190091  1
  Sr  Sr22  1  0.76778356  0.25000000  0.12870942  1
  Sr  Sr23  1  0.26778356  0.25000000  0.37129058  1
  Sr  Sr24  1  0.23221644  0.75000000  0.87129058  1
  Sr  Sr25  1  0.73221644  0.75000000  0.62870942  1
  Sr  Sr26  1  0.25434793  0.54294607  0.12809909  1
  Sr  Sr27  1  0.74565207  0.04294607  0.87190091  1
  Ta  Ta28  1  0.34187577  0.25000000  0.95164946  1
  Ta  Ta29  1  0.84187577  0.25000000  0.54835054  1
  Ta  Ta30  1  0.65812423  0.75000000  0.04835054  1
  Ta  Ta31  1  0.15812423  0.75000000  0.45164946  1
