# generated using pymatgen
data_KGe2(PO4)3
_symmetry_space_group_name_H-M   'P 1'
_cell_length_a   8.95146318
_cell_length_b   8.95146318
_cell_length_c   8.95146318
_cell_angle_alpha   54.02689250
_cell_angle_beta   54.02689247
_cell_angle_gamma   54.02689243
_symmetry_Int_Tables_number   1
_chemical_formula_structural   KGe2(PO4)3
_chemical_formula_sum   'K2 Ge4 P6 O24'
_cell_volume   436.43172509
_cell_formula_units_Z   2
loop_
 _symmetry_equiv_pos_site_id
 _symmetry_equiv_pos_as_xyz
  1  'x, y, z'
loop_
 _atom_site_type_symbol
 _atom_site_label
 _atom_site_symmetry_multiplicity
 _atom_site_fract_x
 _atom_site_fract_y
 _atom_site_fract_z
 _atom_site_occupancy
  O  O0  1  0.47189072  0.18697072  0.53640573  1
  O  O1  1  0.18697072  0.53640573  0.47189072  1
  O  O2  1  0.53640573  0.47189072  0.18697072  1
  O  O3  1  0.52810928  0.81302928  0.46359427  1
  O  O4  1  0.81302928  0.46359427  0.52810928  1
  O  O5  1  0.46359427  0.52810928  0.81302928  1
  O  O6  1  0.88791906  0.09515218  0.73210692  1
  O  O7  1  0.09515218  0.73210692  0.88791906  1
  O  O8  1  0.73210692  0.88791906  0.09515218  1
  O  O9  1  0.11208094  0.90484782  0.26789308  1
  O  O10  1  0.90484782  0.26789308  0.11208094  1
  O  O11  1  0.26789308  0.11208094  0.90484782  1
  O  O12  1  0.36385650  0.98366559  0.23193987  1
  O  O13  1  0.23193987  0.36385650  0.98366559  1
  O  O14  1  0.98366559  0.23193987  0.36385650  1
  O  O15  1  0.63614350  0.01633441  0.76806013  1
  O  O16  1  0.76806013  0.63614350  0.01633441  1
  O  O17  1  0.01633441  0.76806013  0.63614350  1
  O  O18  1  0.78501222  0.47813863  0.83521017  1
  O  O19  1  0.83521017  0.78501222  0.47813863  1
  O  O20  1  0.47813863  0.83521017  0.78501222  1
  O  O21  1  0.21498778  0.52186137  0.16478983  1
  O  O22  1  0.16478983  0.21498778  0.52186137  1
  O  O23  1  0.52186137  0.16478983  0.21498778  1
  P  P24  1  0.03383939  0.74834957  0.46609286  1
  P  P25  1  0.74834957  0.46609286  0.03383939  1
  P  P26  1  0.46609286  0.03383939  0.74834957  1
  P  P27  1  0.96616061  0.25165043  0.53390714  1
  P  P28  1  0.25165043  0.53390714  0.96616061  1
  P  P29  1  0.53390714  0.96616061  0.25165043  1
  K  K30  1  0.00000000  0.00000000  0.00000000  1
  K  K31  1  0.50000000  0.50000000  0.50000000  1
  Ge  Ge32  1  0.85202248  0.85202248  0.85202248  1
  Ge  Ge33  1  0.14797752  0.14797752  0.14797752  1
  Ge  Ge34  1  0.65281275  0.65281275  0.65281275  1
  Ge  Ge35  1  0.34718725  0.34718725  0.34718725  1
