# generated using pymatgen
data_Rb6Ge2O7
_symmetry_space_group_name_H-M   'P 1'
_cell_length_a   6.93705539
_cell_length_b   9.56561477
_cell_length_c   9.67638154
_cell_angle_alpha   90.00000000
_cell_angle_beta   91.57842131
_cell_angle_gamma   90.00000000
_symmetry_Int_Tables_number   1
_chemical_formula_structural   Rb6Ge2O7
_chemical_formula_sum   'Rb12 Ge4 O14'
_cell_volume   641.85394324
_cell_formula_units_Z   2
loop_
 _symmetry_equiv_pos_site_id
 _symmetry_equiv_pos_as_xyz
  1  'x, y, z'
loop_
 _atom_site_type_symbol
 _atom_site_label
 _atom_site_symmetry_multiplicity
 _atom_site_fract_x
 _atom_site_fract_y
 _atom_site_fract_z
 _atom_site_occupancy
  O  O0  1  0.07177895  0.28790593  0.56491322  1
  O  O1  1  0.00000000  0.00000000  0.50000000  1
  O  O2  1  0.50000000  0.50000000  0.00000000  1
  O  O3  1  0.04542550  0.08382032  0.79059049  1
  O  O4  1  0.42822105  0.78790593  0.93508678  1
  O  O5  1  0.92822105  0.71209407  0.43508678  1
  O  O6  1  0.57177895  0.21209407  0.06491322  1
  O  O7  1  0.19464246  0.33944982  0.12683192  1
  O  O8  1  0.30535754  0.83944982  0.37316808  1
  O  O9  1  0.80535754  0.66055018  0.87316808  1
  O  O10  1  0.69464246  0.16055018  0.62683192  1
  O  O11  1  0.54542550  0.41617968  0.29059049  1
  O  O12  1  0.95457450  0.91617968  0.20940951  1
  O  O13  1  0.45457450  0.58382032  0.70940951  1
  Ge  Ge14  1  0.44930673  0.36129760  0.12791432  1
  Ge  Ge15  1  0.94930673  0.13870240  0.62791432  1
  Ge  Ge16  1  0.55069327  0.63870240  0.87208568  1
  Ge  Ge17  1  0.05069327  0.86129760  0.37208568  1
  Rb  Rb18  1  0.12029742  0.78639485  0.72140135  1
  Rb  Rb19  1  0.62029742  0.71360515  0.22140135  1
  Rb  Rb20  1  0.87970258  0.21360515  0.27859865  1
  Rb  Rb21  1  0.87972840  0.35307567  0.91862450  1
  Rb  Rb22  1  0.62027160  0.85307567  0.58137550  1
  Rb  Rb23  1  0.12027160  0.64692433  0.08137550  1
  Rb  Rb24  1  0.37972840  0.14692433  0.41862450  1
  Rb  Rb25  1  0.75178185  0.47307977  0.54303588  1
  Rb  Rb26  1  0.74821815  0.97307977  0.95696412  1
  Rb  Rb27  1  0.24821815  0.52692023  0.45696412  1
  Rb  Rb28  1  0.25178185  0.02692023  0.04303588  1
  Rb  Rb29  1  0.37970258  0.28639485  0.77859865  1
