# generated using pymatgen
data_K6MnTe4
_symmetry_space_group_name_H-M   'P 1'
_cell_length_a   11.00853662
_cell_length_b   11.00853662
_cell_length_c   8.51126017
_cell_angle_alpha   90.00000000
_cell_angle_beta   90.00000000
_cell_angle_gamma   120.00000000
_symmetry_Int_Tables_number   1
_chemical_formula_structural   K6MnTe4
_chemical_formula_sum   'K12 Mn2 Te8'
_cell_volume   893.27191687
_cell_formula_units_Z   2
loop_
 _symmetry_equiv_pos_site_id
 _symmetry_equiv_pos_as_xyz
  1  'x, y, z'
loop_
 _atom_site_type_symbol
 _atom_site_label
 _atom_site_symmetry_multiplicity
 _atom_site_fract_x
 _atom_site_fract_y
 _atom_site_fract_z
 _atom_site_occupancy
  K  K0  1  0.14769183  0.85230817  0.54514948  1
  K  K1  1  0.29538366  0.14769183  0.04514948  1
  K  K2  1  0.85230817  0.70461634  0.04514948  1
  K  K3  1  0.14769183  0.29538366  0.54514948  1
  K  K4  1  0.70461634  0.85230817  0.54514948  1
  K  K5  1  0.85230817  0.14769183  0.04514948  1
  K  K6  1  0.52601661  0.47398339  0.36465733  1
  K  K7  1  0.05203321  0.52601661  0.86465733  1
  K  K8  1  0.47398339  0.94796679  0.86465733  1
  K  K9  1  0.52601661  0.05203321  0.36465733  1
  K  K10  1  0.94796679  0.47398339  0.36465733  1
  K  K11  1  0.47398339  0.52601661  0.86465733  1
  Mn  Mn12  1  0.33333333  0.66666667  0.24987725  1
  Mn  Mn13  1  0.66666667  0.33333333  0.74987725  1
  Te  Te14  1  0.33333333  0.66666667  0.57683540  1
  Te  Te15  1  0.66666667  0.33333333  0.07683540  1
  Te  Te16  1  0.19468552  0.80531448  0.14845564  1
  Te  Te17  1  0.38937104  0.19468552  0.64845564  1
  Te  Te18  1  0.80531448  0.61062896  0.64845564  1
  Te  Te19  1  0.19468552  0.38937104  0.14845564  1
  Te  Te20  1  0.61062896  0.80531448  0.14845564  1
  Te  Te21  1  0.80531448  0.19468552  0.64845564  1
