# generated using pymatgen
data_Pr2(ZnGe2)3
_symmetry_space_group_name_H-M   'P 1'
_cell_length_a   5.98998318
_cell_length_b   5.99905018
_cell_length_c   12.82144705
_cell_angle_alpha   103.52949589
_cell_angle_beta   90.00000000
_cell_angle_gamma   90.00000000
_symmetry_Int_Tables_number   1
_chemical_formula_structural   Pr2(ZnGe2)3
_chemical_formula_sum   'Pr4 Zn6 Ge12'
_cell_volume   447.94317142
_cell_formula_units_Z   2
loop_
 _symmetry_equiv_pos_site_id
 _symmetry_equiv_pos_as_xyz
  1  'x, y, z'
loop_
 _atom_site_type_symbol
 _atom_site_label
 _atom_site_symmetry_multiplicity
 _atom_site_fract_x
 _atom_site_fract_y
 _atom_site_fract_z
 _atom_site_occupancy
  Zn  Zn0  1  0.00000000  0.73494598  0.00000000  1
  Zn  Zn1  1  0.75000000  0.15994900  0.31989800  1
  Zn  Zn2  1  0.50000000  0.73494598  0.00000000  1
  Zn  Zn3  1  0.00000000  0.26505402  0.00000000  1
  Zn  Zn4  1  0.25000000  0.84005100  0.68010200  1
  Zn  Zn5  1  0.50000000  0.26505402  0.00000000  1
  Ge  Ge6  1  0.03400533  0.48520029  0.40219764  1
  Ge  Ge7  1  0.53400533  0.51479971  0.59780236  1
  Ge  Ge8  1  0.03400533  0.91699735  0.40219764  1
  Ge  Ge9  1  0.53400533  0.08300265  0.59780236  1
  Ge  Ge10  1  0.96599467  0.51479971  0.59780236  1
  Ge  Ge11  1  0.46599467  0.48520029  0.40219764  1
  Ge  Ge12  1  0.96599467  0.08300265  0.59780236  1
  Ge  Ge13  1  0.25000000  0.94195570  0.88391140  1
  Ge  Ge14  1  0.75000000  0.43085579  0.86171158  1
  Ge  Ge15  1  0.25000000  0.56914421  0.13828842  1
  Ge  Ge16  1  0.75000000  0.05804430  0.11608860  1
  Ge  Ge17  1  0.46599467  0.91699735  0.40219764  1
  Pr  Pr18  1  0.75000000  0.60624848  0.21249695  1
  Pr  Pr19  1  0.25000000  0.39375152  0.78750305  1
  Pr  Pr20  1  0.25000000  0.10577939  0.21155878  1
  Pr  Pr21  1  0.75000000  0.89422061  0.78844122  1
