# generated using pymatgen
data_CaTa2O6
_symmetry_space_group_name_H-M   'P 1'
_cell_length_a   5.42205806
_cell_length_b   7.58058369
_cell_length_c   11.21282320
_cell_angle_alpha   90.00000000
_cell_angle_beta   90.00000000
_cell_angle_gamma   90.00000000
_symmetry_Int_Tables_number   1
_chemical_formula_structural   CaTa2O6
_chemical_formula_sum   'Ca4 Ta8 O24'
_cell_volume   460.87355068
_cell_formula_units_Z   4
loop_
 _symmetry_equiv_pos_site_id
 _symmetry_equiv_pos_as_xyz
  1  'x, y, z'
loop_
 _atom_site_type_symbol
 _atom_site_label
 _atom_site_symmetry_multiplicity
 _atom_site_fract_x
 _atom_site_fract_y
 _atom_site_fract_z
 _atom_site_occupancy
  O  O0  1  0.66041956  0.25000000  0.37779827  1
  O  O1  1  0.16041956  0.75000000  0.12220173  1
  O  O2  1  0.33958044  0.75000000  0.62220173  1
  O  O3  1  0.83958044  0.25000000  0.87779827  1
  O  O4  1  0.44858307  0.75000000  0.35575281  1
  O  O5  1  0.94858307  0.25000000  0.14424719  1
  O  O6  1  0.55141693  0.25000000  0.64424719  1
  O  O7  1  0.05141693  0.75000000  0.85575281  1
  O  O8  1  0.13243542  0.44009083  0.71326047  1
  O  O9  1  0.63243542  0.55990917  0.78673953  1
  O  O10  1  0.86756458  0.94009083  0.28673953  1
  O  O11  1  0.36756458  0.05990917  0.21326047  1
  O  O12  1  0.77067914  0.95976270  0.02366373  1
  O  O13  1  0.27067914  0.04023730  0.47633627  1
  O  O14  1  0.22932086  0.45976270  0.97633627  1
  O  O15  1  0.72932086  0.54023730  0.52366373  1
  O  O16  1  0.22932086  0.04023730  0.97633627  1
  O  O17  1  0.72932086  0.95976270  0.52366373  1
  O  O18  1  0.77067914  0.54023730  0.02366373  1
  O  O19  1  0.27067914  0.45976270  0.47633627  1
  O  O20  1  0.63243542  0.94009083  0.78673953  1
  O  O21  1  0.13243542  0.05990917  0.71326047  1
  O  O22  1  0.36756458  0.44009083  0.21326047  1
  O  O23  1  0.86756458  0.55990917  0.28673953  1
  Ca  Ca24  1  0.45748008  0.75000000  0.95878496  1
  Ca  Ca25  1  0.95748008  0.25000000  0.54121504  1
  Ca  Ca26  1  0.54251992  0.25000000  0.04121504  1
  Ca  Ca27  1  0.04251992  0.75000000  0.45878496  1
  Ta  Ta28  1  0.53683628  0.49451412  0.35908683  1
  Ta  Ta29  1  0.03683628  0.50548588  0.14091317  1
  Ta  Ta30  1  0.46316372  0.99451412  0.64091317  1
  Ta  Ta31  1  0.96316372  0.00548588  0.85908683  1
  Ta  Ta32  1  0.03683628  0.99451412  0.14091317  1
  Ta  Ta33  1  0.53683628  0.00548588  0.35908683  1
  Ta  Ta34  1  0.96316372  0.49451412  0.85908683  1
  Ta  Ta35  1  0.46316372  0.50548588  0.64091317  1
