# generated using pymatgen
data_Ba(TmTe2)2
_symmetry_space_group_name_H-M   'P 1'
_cell_length_a   4.45043049
_cell_length_b   13.74530301
_cell_length_c   16.17544398
_cell_angle_alpha   90.00000000
_cell_angle_beta   90.00000000
_cell_angle_gamma   90.00000000
_symmetry_Int_Tables_number   1
_chemical_formula_structural   Ba(TmTe2)2
_chemical_formula_sum   'Ba4 Tm8 Te16'
_cell_volume   989.49259937
_cell_formula_units_Z   4
loop_
 _symmetry_equiv_pos_site_id
 _symmetry_equiv_pos_as_xyz
  1  'x, y, z'
loop_
 _atom_site_type_symbol
 _atom_site_label
 _atom_site_symmetry_multiplicity
 _atom_site_fract_x
 _atom_site_fract_y
 _atom_site_fract_z
 _atom_site_occupancy
  Te  Te0  1  0.25000000  0.97204571  0.71569419  1
  Te  Te1  1  0.75000000  0.02795429  0.28430581  1
  Te  Te2  1  0.25000000  0.47204571  0.78430581  1
  Te  Te3  1  0.75000000  0.52795429  0.21569419  1
  Te  Te4  1  0.25000000  0.87429497  0.47184152  1
  Te  Te5  1  0.75000000  0.12570503  0.52815848  1
  Te  Te6  1  0.25000000  0.37429497  0.02815848  1
  Te  Te7  1  0.75000000  0.62570503  0.97184152  1
  Te  Te8  1  0.25000000  0.79570387  0.15786555  1
  Te  Te9  1  0.75000000  0.20429613  0.84213445  1
  Te  Te10  1  0.25000000  0.29570387  0.34213445  1
  Te  Te11  1  0.75000000  0.70429613  0.65786555  1
  Te  Te12  1  0.75000000  0.91034376  0.92463327  1
  Te  Te13  1  0.25000000  0.08965624  0.07536673  1
  Te  Te14  1  0.75000000  0.41034376  0.57536673  1
  Te  Te15  1  0.25000000  0.58965624  0.42463327  1
  Ba  Ba16  1  0.75000000  0.76156412  0.33004019  1
  Ba  Ba17  1  0.25000000  0.23843588  0.66995981  1
  Ba  Ba18  1  0.75000000  0.26156412  0.16995981  1
  Ba  Ba19  1  0.25000000  0.73843588  0.83004019  1
  Tm  Tm20  1  0.25000000  0.58090534  0.09643619  1
  Tm  Tm21  1  0.75000000  0.41909466  0.90356381  1
  Tm  Tm22  1  0.25000000  0.08090534  0.40356381  1
  Tm  Tm23  1  0.75000000  0.91909466  0.59643619  1
  Tm  Tm24  1  0.75000000  0.44185623  0.39001906  1
  Tm  Tm25  1  0.25000000  0.55814377  0.60998094  1
  Tm  Tm26  1  0.75000000  0.94185623  0.10998094  1
  Tm  Tm27  1  0.25000000  0.05814377  0.89001906  1
