# generated using pymatgen
data_Ce2Al3Ge4
_symmetry_space_group_name_H-M   'P 1'
_cell_length_a   6.02668495
_cell_length_b   7.93684592
_cell_length_c   8.10355278
_cell_angle_alpha   90.00000000
_cell_angle_beta   111.83003395
_cell_angle_gamma   90.00000000
_symmetry_Int_Tables_number   1
_chemical_formula_structural   Ce2Al3Ge4
_chemical_formula_sum   'Ce4 Al6 Ge8'
_cell_volume   359.82062853
_cell_formula_units_Z   2
loop_
 _symmetry_equiv_pos_site_id
 _symmetry_equiv_pos_as_xyz
  1  'x, y, z'
loop_
 _atom_site_type_symbol
 _atom_site_label
 _atom_site_symmetry_multiplicity
 _atom_site_fract_x
 _atom_site_fract_y
 _atom_site_fract_z
 _atom_site_occupancy
  Al  Al0  1  0.50000000  0.50000000  0.00000000  1
  Al  Al1  1  0.00000000  0.00000000  0.00000000  1
  Al  Al2  1  0.46513733  0.25000000  0.43027467  1
  Al  Al3  1  0.03486267  0.75000000  0.56972533  1
  Al  Al4  1  0.96513733  0.25000000  0.43027467  1
  Al  Al5  1  0.53486267  0.75000000  0.56972533  1
  Ge  Ge6  1  0.68419890  0.55071798  0.36839780  1
  Ge  Ge7  1  0.31580110  0.44928202  0.63160220  1
  Ge  Ge8  1  0.18419890  0.94928202  0.36839780  1
  Ge  Ge9  1  0.79645538  0.25000000  0.09291076  1
  Ge  Ge10  1  0.29645538  0.25000000  0.09291076  1
  Ge  Ge11  1  0.20354462  0.75000000  0.90708924  1
  Ge  Ge12  1  0.70354462  0.75000000  0.90708924  1
  Ge  Ge13  1  0.81580110  0.05071798  0.63160220  1
  Ce  Ce14  1  0.61375582  0.91834006  0.22751165  1
  Ce  Ce15  1  0.38624418  0.08165994  0.77248835  1
  Ce  Ce16  1  0.11375582  0.58165994  0.22751165  1
  Ce  Ce17  1  0.88624418  0.41834006  0.77248835  1
