# generated using pymatgen
data_Sr3ScRhO6
_symmetry_space_group_name_H-M   'P 1'
_cell_length_a   6.76117594
_cell_length_b   6.76117594
_cell_length_c   6.76117593
_cell_angle_alpha   92.63615762
_cell_angle_beta   92.63615759
_cell_angle_gamma   92.63615765
_symmetry_Int_Tables_number   1
_chemical_formula_structural   Sr3ScRhO6
_chemical_formula_sum   'Sr6 Sc2 Rh2 O12'
_cell_volume   308.06455775
_cell_formula_units_Z   2
loop_
 _symmetry_equiv_pos_site_id
 _symmetry_equiv_pos_as_xyz
  1  'x, y, z'
loop_
 _atom_site_type_symbol
 _atom_site_label
 _atom_site_symmetry_multiplicity
 _atom_site_fract_x
 _atom_site_fract_y
 _atom_site_fract_z
 _atom_site_occupancy
  O  O0  1  0.79284655  0.59926204  0.46641649  1
  O  O1  1  0.59926204  0.46641649  0.79284655  1
  O  O2  1  0.46641649  0.79284655  0.59926204  1
  O  O3  1  0.03358351  0.90073796  0.70715345  1
  O  O4  1  0.90073796  0.70715345  0.03358351  1
  O  O5  1  0.70715345  0.03358351  0.90073796  1
  O  O6  1  0.20715345  0.40073796  0.53358351  1
  O  O7  1  0.40073796  0.53358351  0.20715345  1
  O  O8  1  0.53358351  0.20715345  0.40073796  1
  O  O9  1  0.96641649  0.09926204  0.29284655  1
  O  O10  1  0.29284655  0.96641649  0.09926204  1
  O  O11  1  0.09926204  0.29284655  0.96641649  1
  Sc  Sc12  1  0.75000000  0.75000000  0.75000000  1
  Sc  Sc13  1  0.25000000  0.25000000  0.25000000  1
  Sr  Sr14  1  0.11890737  0.75000000  0.38109263  1
  Sr  Sr15  1  0.75000000  0.38109263  0.11890737  1
  Sr  Sr16  1  0.38109263  0.11890737  0.75000000  1
  Sr  Sr17  1  0.88109263  0.25000000  0.61890737  1
  Sr  Sr18  1  0.25000000  0.61890737  0.88109263  1
  Sr  Sr19  1  0.61890737  0.88109263  0.25000000  1
  Rh  Rh20  1  0.50000000  0.50000000  0.50000000  1
  Rh  Rh21  1  0.00000000  0.00000000  0.00000000  1
