# generated using pymatgen
data_Li4Cu7(PO4)6
_symmetry_space_group_name_H-M   'P 1'
_cell_length_a   8.86989565
_cell_length_b   8.86989565
_cell_length_c   6.30400735
_cell_angle_alpha   81.31375951
_cell_angle_beta   98.68624049
_cell_angle_gamma   74.13228729
_symmetry_Int_Tables_number   1
_chemical_formula_structural   Li4Cu7(PO4)6
_chemical_formula_sum   'Li4 Cu7 P6 O24'
_cell_volume   461.85112558
_cell_formula_units_Z   1
loop_
 _symmetry_equiv_pos_site_id
 _symmetry_equiv_pos_as_xyz
  1  'x, y, z'
loop_
 _atom_site_type_symbol
 _atom_site_label
 _atom_site_symmetry_multiplicity
 _atom_site_fract_x
 _atom_site_fract_y
 _atom_site_fract_z
 _atom_site_occupancy
  Li  Li0  1  0.01152876  0.98847124  0.49678084  1
  Li  Li1  1  0.36569922  0.63430078  0.58790687  1
  Li  Li2  1  0.68121986  0.53781012  0.49489143  1
  Li  Li3  1  0.46218988  0.31878014  0.49489143  1
  Cu  Cu4  1  0.64457503  0.99532887  0.18573721  1
  Cu  Cu5  1  0.00467113  0.35542497  0.18573721  1
  Cu  Cu6  1  0.00396877  0.99603123  0.00073441  1
  Cu  Cu7  1  0.34720525  0.34178522  0.00181539  1
  Cu  Cu8  1  0.65821478  0.65279475  0.00181539  1
  Cu  Cu9  1  0.36044875  0.99816779  0.82044203  1
  Cu  Cu10  1  0.00183221  0.63955125  0.82044203  1
  P  P11  1  0.71102699  0.90548552  0.70127996  1
  P  P12  1  0.09451448  0.28897301  0.70127996  1
  P  P13  1  0.32503402  0.67496598  0.08353520  1
  P  P14  1  0.68360835  0.31639165  0.92448603  1
  P  P15  1  0.29361889  0.08160802  0.30331717  1
  P  P16  1  0.91839198  0.70638111  0.30331717  1
  O  O17  1  0.35016772  0.96055921  0.52263211  1
  O  O18  1  0.03944079  0.64983228  0.52263211  1
  O  O19  1  0.02769551  0.38626984  0.87270113  1
  O  O20  1  0.61373016  0.97230449  0.87270113  1
  O  O21  1  0.19221408  0.80778592  0.13388211  1
  O  O22  1  0.42500897  0.74675517  0.93055842  1
  O  O23  1  0.25324483  0.57499103  0.93055842  1
  O  O24  1  0.11695724  0.10236143  0.76201893  1
  O  O25  1  0.89763857  0.88304276  0.76201893  1
  O  O26  1  0.69957127  0.73215370  0.70632163  1
  O  O27  1  0.26784630  0.30042873  0.70632163  1
  O  O28  1  0.43218134  0.56781866  0.29807299  1
  O  O29  1  0.57696616  0.42303384  0.70707516  1
  O  O30  1  0.31143958  0.25187536  0.30261564  1
  O  O31  1  0.74812464  0.68856042  0.30261564  1
  O  O32  1  0.10624481  0.11140156  0.23656723  1
  O  O33  1  0.88859844  0.89375519  0.23656723  1
  O  O34  1  0.81682141  0.18317859  0.87814729  1
  O  O35  1  0.39238976  0.01452519  0.13448133  1
  O  O36  1  0.98547481  0.60761024  0.13448133  1
  O  O37  1  0.75488596  0.42157060  0.06589557  1
  O  O38  1  0.57842940  0.24511404  0.06589557  1
  O  O39  1  0.64332033  0.02721243  0.48381787  1
  O  O40  1  0.97278757  0.35667967  0.48381787  1
