# generated using pymatgen
data_PrCo9Si4
_symmetry_space_group_name_H-M   'P 1'
_cell_length_a   7.75568201
_cell_length_b   7.75568201
_cell_length_c   7.93272292
_cell_angle_alpha   119.26443890
_cell_angle_beta   119.26443888
_cell_angle_gamma   90.00000002
_symmetry_Int_Tables_number   1
_chemical_formula_structural   PrCo9Si4
_chemical_formula_sum   'Pr2 Co18 Si8'
_cell_volume   344.76734606
_cell_formula_units_Z   2
loop_
 _symmetry_equiv_pos_site_id
 _symmetry_equiv_pos_as_xyz
  1  'x, y, z'
loop_
 _atom_site_type_symbol
 _atom_site_label
 _atom_site_symmetry_multiplicity
 _atom_site_fract_x
 _atom_site_fract_y
 _atom_site_fract_z
 _atom_site_occupancy
  Si  Si0  1  0.78991776  0.28991776  0.24192945  1
  Si  Si1  1  0.54798831  0.04798831  0.75807055  1
  Si  Si2  1  0.71008224  0.54798831  0.75807055  1
  Si  Si3  1  0.95201169  0.78991776  0.24192945  1
  Si  Si4  1  0.28991776  0.45201169  0.24192945  1
  Si  Si5  1  0.45201169  0.95201169  0.24192945  1
  Si  Si6  1  0.21008224  0.71008224  0.75807055  1
  Si  Si7  1  0.04798831  0.21008224  0.75807055  1
  Co  Co8  1  0.44926030  0.69048485  0.63974514  1
  Co  Co9  1  0.94926030  0.44926030  0.63974514  1
  Co  Co10  1  0.69048485  0.19048485  0.63974514  1
  Co  Co11  1  0.05073970  0.55073970  0.36025486  1
  Co  Co12  1  0.19048485  0.94926030  0.63974514  1
  Co  Co13  1  0.92967344  0.19985577  0.00000000  1
  Co  Co14  1  0.07032656  0.80014423  0.00000000  1
  Co  Co15  1  0.69985577  0.42967344  0.00000000  1
  Co  Co16  1  0.30014423  0.57032656  0.00000000  1
  Co  Co17  1  0.57032656  0.69985577  0.00000000  1
  Co  Co18  1  0.42967344  0.30014423  0.00000000  1
  Co  Co19  1  0.80014423  0.92967344  0.00000000  1
  Co  Co20  1  0.55073970  0.30951515  0.36025486  1
  Co  Co21  1  0.30951515  0.80951515  0.36025486  1
  Co  Co22  1  0.50000000  0.00000000  0.00000000  1
  Co  Co23  1  0.00000000  0.50000000  0.00000000  1
  Co  Co24  1  0.19985577  0.07032656  0.00000000  1
  Co  Co25  1  0.80951515  0.05073970  0.36025486  1
  Pr  Pr26  1  0.75000000  0.75000000  0.50000000  1
  Pr  Pr27  1  0.25000000  0.25000000  0.50000000  1
