# generated using pymatgen
data_Na5Ti2Si2PO13
_symmetry_space_group_name_H-M   'P 1'
_cell_length_a   5.46177875
_cell_length_b   7.16027890
_cell_length_c   14.70233296
_cell_angle_alpha   100.01275065
_cell_angle_beta   96.55930173
_cell_angle_gamma   90.56628391
_symmetry_Int_Tables_number   1
_chemical_formula_structural   Na5Ti2Si2PO13
_chemical_formula_sum   'Na10 Ti4 Si4 P2 O26'
_cell_volume   562.25291439
_cell_formula_units_Z   2
loop_
 _symmetry_equiv_pos_site_id
 _symmetry_equiv_pos_as_xyz
  1  'x, y, z'
loop_
 _atom_site_type_symbol
 _atom_site_label
 _atom_site_symmetry_multiplicity
 _atom_site_fract_x
 _atom_site_fract_y
 _atom_site_fract_z
 _atom_site_occupancy
  O  O0  1  0.66983469  0.76966032  0.47399083  1
  O  O1  1  0.33016531  0.23033968  0.52600917  1
  O  O2  1  0.74831084  0.59856218  0.61193781  1
  O  O3  1  0.25168916  0.40143782  0.38806219  1
  O  O4  1  0.10093568  0.77442933  0.56031678  1
  O  O5  1  0.89906432  0.22557067  0.43968322  1
  O  O6  1  0.91774745  0.57764056  0.93296501  1
  O  O7  1  0.08225255  0.42235944  0.06703499  1
  O  O8  1  0.76567985  0.96505143  0.63621575  1
  O  O9  1  0.23432015  0.03494857  0.36378425  1
  O  O10  1  0.86167403  0.17342691  0.90822515  1
  O  O11  1  0.13832597  0.82657309  0.09177485  1
  O  O12  1  0.58669204  0.26909707  0.75079589  1
  O  O13  1  0.41330796  0.73090293  0.24920411  1
  O  O14  1  0.09759823  0.24096908  0.75764035  1
  O  O15  1  0.90240177  0.75903092  0.24235965  1
  O  O16  1  0.41300364  0.39370768  0.91755107  1
  O  O17  1  0.58699636  0.60629232  0.08244893  1
  O  O18  1  0.55517251  0.90154916  0.79138902  1
  O  O19  1  0.44482749  0.09845084  0.20861098  1
  O  O20  1  0.67865336  0.42999116  0.23033459  1
  O  O21  1  0.32134664  0.57000884  0.76966541  1
  O  O22  1  0.64141214  0.19995006  0.06381461  1
  O  O23  1  0.35858786  0.80004994  0.93618539  1
  O  O24  1  0.93960247  0.12417511  0.20780668  1
  O  O25  1  0.06039753  0.87582489  0.79219332  1
  Na  Na26  1  0.75559379  0.25626641  0.58099617  1
  Na  Na27  1  0.24440621  0.74373359  0.41900383  1
  Na  Na28  1  0.32601675  0.53965599  0.60451539  1
  Na  Na29  1  0.67398325  0.46034401  0.39548461  1
  Na  Na30  1  0.32125016  0.03267533  0.63756818  1
  Na  Na31  1  0.67874984  0.96732467  0.36243182  1
  Na  Na32  1  0.75406544  0.87734583  0.00110192  1
  Na  Na33  1  0.17322217  0.42094947  0.23160427  1
  Na  Na34  1  0.82677783  0.57905053  0.76839573  1
  Na  Na35  1  0.24593456  0.12265417  0.99889808  1
  Si  Si36  1  0.35315068  0.35818542  0.80310595  1
  Si  Si37  1  0.32755580  0.79489609  0.82447558  1
  Si  Si38  1  0.64684932  0.64181458  0.19689405  1
  Si  Si39  1  0.67244420  0.20510391  0.17552442  1
  P  P40  1  0.17806111  0.22696287  0.42993665  1
  P  P41  1  0.82193889  0.77303713  0.57006335  1
  Ti  Ti42  1  0.77863027  0.38222622  0.98953188  1
  Ti  Ti43  1  0.22136973  0.61777378  0.01046812  1
  Ti  Ti44  1  0.82876205  0.06951242  0.77909186  1
  Ti  Ti45  1  0.17123795  0.93048758  0.22090814  1
