# generated using pymatgen
data_Zr2CuGe4
_symmetry_space_group_name_H-M   'P 1'
_cell_length_a   3.81197312
_cell_length_b   3.83685705
_cell_length_c   16.88873989
_cell_angle_alpha   96.52242987
_cell_angle_beta   90.00000000
_cell_angle_gamma   90.00000000
_symmetry_Int_Tables_number   1
_chemical_formula_structural   Zr2CuGe4
_chemical_formula_sum   'Zr4 Cu2 Ge8'
_cell_volume   245.41582969
_cell_formula_units_Z   2
loop_
 _symmetry_equiv_pos_site_id
 _symmetry_equiv_pos_as_xyz
  1  'x, y, z'
loop_
 _atom_site_type_symbol
 _atom_site_label
 _atom_site_symmetry_multiplicity
 _atom_site_fract_x
 _atom_site_fract_y
 _atom_site_fract_z
 _atom_site_occupancy
  Cu  Cu0  1  0.75000000  0.74990599  0.49981199  1
  Cu  Cu1  1  0.25000000  0.25009401  0.50018801  1
  Ge  Ge2  1  0.25000000  0.11319912  0.22639825  1
  Ge  Ge3  1  0.75000000  0.88680088  0.77360175  1
  Ge  Ge4  1  0.25000000  0.79755973  0.59511945  1
  Ge  Ge5  1  0.75000000  0.20244027  0.40488055  1
  Ge  Ge6  1  0.75000000  0.47282357  0.94564715  1
  Ge  Ge7  1  0.25000000  0.52717643  0.05435285  1
  Ge  Ge8  1  0.75000000  0.61285240  0.22570479  1
  Ge  Ge9  1  0.25000000  0.38714760  0.77429521  1
  Zr  Zr10  1  0.25000000  0.67761032  0.35522064  1
  Zr  Zr11  1  0.75000000  0.32238968  0.64477936  1
  Zr  Zr12  1  0.25000000  0.95279677  0.90559354  1
  Zr  Zr13  1  0.75000000  0.04720323  0.09440646  1
