# generated using pymatgen
data_Fe3Co2Ni(PO4)6
_symmetry_space_group_name_H-M   'P 1'
_cell_length_a   8.40153033
_cell_length_b   8.63024260
_cell_length_c   8.63024300
_cell_angle_alpha   60.00000088
_cell_angle_beta   59.09531637
_cell_angle_gamma   59.09531563
_symmetry_Int_Tables_number   1
_chemical_formula_structural   Fe3Co2Ni(PO4)6
_chemical_formula_sum   'Fe3 Co2 Ni1 P6 O24'
_cell_volume   436.32831466
_cell_formula_units_Z   1
loop_
 _symmetry_equiv_pos_site_id
 _symmetry_equiv_pos_as_xyz
  1  'x, y, z'
loop_
 _atom_site_type_symbol
 _atom_site_label
 _atom_site_symmetry_multiplicity
 _atom_site_fract_x
 _atom_site_fract_y
 _atom_site_fract_z
 _atom_site_occupancy
  Fe  Fe0  1  0.06434527  0.64521791  0.64521791  1
  Fe  Fe1  1  0.43323690  0.85558737  0.85558737  1
  Fe  Fe2  1  0.93319895  0.35560068  0.35560068  1
  Co  Co3  1  0.99798935  0.00067055  0.00067055  1
  Co  Co4  1  0.49839108  0.50053664  0.50053664  1
  Ni  Ni5  1  0.57245331  0.14251556  0.14251556  1
  P  P6  1  0.24957419  0.24880372  0.54795145  1
  P  P7  1  0.24957419  0.95367165  0.24880372  1
  P  P8  1  0.24957419  0.54795145  0.95367165  1
  P  P9  1  0.75122673  0.44980672  0.04692344  1
  P  P10  1  0.75122673  0.04692344  0.75204411  1
  P  P11  1  0.75122673  0.75204411  0.44980672  1
  O  O12  1  0.06328920  0.10842289  0.32323728  1
  O  O13  1  0.06328920  0.50504963  0.10842289  1
  O  O14  1  0.06328920  0.32323728  0.50504963  1
  O  O15  1  0.21351007  0.09306216  0.75308746  1
  O  O16  1  0.43738679  0.17857874  0.39487258  1
  O  O17  1  0.28154042  0.40356057  0.56615289  1
  O  O18  1  0.21351007  0.94034031  0.09306216  1
  O  O19  1  0.28154042  0.74874512  0.40356057  1
  O  O20  1  0.56520446  0.60528553  0.00316126  1
  O  O21  1  0.28154042  0.56615289  0.74874512  1
  O  O22  1  0.78761409  0.24641720  0.06043947  1
  O  O23  1  0.56520446  0.00316126  0.82634875  1
  O  O24  1  0.43738679  0.98916189  0.17857874  1
  O  O25  1  0.21351007  0.75308746  0.94034031  1
  O  O26  1  0.71446021  0.43841174  0.25030099  1
  O  O27  1  0.43738679  0.39487258  0.98916189  1
  O  O28  1  0.71446021  0.25030099  0.59682806  1
  O  O29  1  0.78761409  0.06043947  0.90552924  1
  O  O30  1  0.71446021  0.59682806  0.43841174  1
  O  O31  1  0.56520446  0.82634875  0.60528553  1
  O  O32  1  0.78761409  0.90552924  0.24641720  1
  O  O33  1  0.93632355  0.67543789  0.49529314  1
  O  O34  1  0.93632355  0.49529314  0.89294542  1
  O  O35  1  0.93632355  0.89294542  0.67543789  1
