# generated using pymatgen
data_Mn2MoP12
_symmetry_space_group_name_H-M   'P 1'
_cell_length_a   5.73658206
_cell_length_b   8.49902419
_cell_length_c   10.50564793
_cell_angle_alpha   66.74437236
_cell_angle_beta   74.15572496
_cell_angle_gamma   70.27629488
_symmetry_Int_Tables_number   1
_chemical_formula_structural   Mn2MoP12
_chemical_formula_sum   'Mn4 Mo2 P24'
_cell_volume   437.15836840
_cell_formula_units_Z   2
loop_
 _symmetry_equiv_pos_site_id
 _symmetry_equiv_pos_as_xyz
  1  'x, y, z'
loop_
 _atom_site_type_symbol
 _atom_site_label
 _atom_site_symmetry_multiplicity
 _atom_site_fract_x
 _atom_site_fract_y
 _atom_site_fract_z
 _atom_site_occupancy
  P  P0  1  0.05111341  0.62122865  0.92446200  1
  P  P1  1  0.59680406  0.87877135  0.57553800  1
  P  P2  1  0.94888659  0.37877135  0.07553800  1
  P  P3  1  0.40319594  0.12122865  0.42446200  1
  P  P4  1  0.70078564  0.04398503  0.83386581  1
  P  P5  1  0.57863649  0.45601497  0.66613419  1
  P  P6  1  0.67103552  0.06447808  0.23998564  1
  P  P7  1  0.97549924  0.43552192  0.26001436  1
  P  P8  1  0.32896448  0.93552192  0.76001436  1
  P  P9  1  0.02450076  0.56447808  0.73998564  1
  P  P10  1  0.07728808  0.85920551  0.07398292  1
  P  P11  1  0.01047651  0.64079449  0.42601708  1
  P  P12  1  0.92271192  0.14079449  0.92601708  1
  P  P13  1  0.98952349  0.35920551  0.57398292  1
  P  P14  1  0.56479053  0.27042308  0.49700769  1
  P  P15  1  0.33222130  0.22957692  0.00299231  1
  P  P16  1  0.43520947  0.72957692  0.50299231  1
  P  P17  1  0.66777870  0.77042308  0.99700769  1
  P  P18  1  0.35275898  0.47957821  0.16472585  1
  P  P19  1  0.99706304  0.02042179  0.33527415  1
  P  P20  1  0.64724102  0.52042179  0.83527415  1
  P  P21  1  0.00293696  0.97957821  0.66472585  1
  P  P22  1  0.42136351  0.54398503  0.33386581  1
  P  P23  1  0.29921436  0.95601497  0.16613419  1
  Mn  Mn24  1  0.01130967  0.81529995  0.54561121  1
  Mn  Mn25  1  0.37222082  0.68470005  0.95438879  1
  Mn  Mn26  1  0.98869033  0.18470005  0.45438879  1
  Mn  Mn27  1  0.62777918  0.31529995  0.04561121  1
  Mo  Mo28  1  0.30490207  0.25000000  0.75000000  1
  Mo  Mo29  1  0.69509793  0.75000000  0.25000000  1
