# generated using pymatgen
data_La2Cu(SeO3)4
_symmetry_space_group_name_H-M   'P 1'
_cell_length_a   7.21315037
_cell_length_b   8.46058115
_cell_length_c   10.89703241
_cell_angle_alpha   110.36226926
_cell_angle_beta   90.00000000
_cell_angle_gamma   90.00000000
_symmetry_Int_Tables_number   1
_chemical_formula_structural   La2Cu(SeO3)4
_chemical_formula_sum   'La4 Cu2 Se8 O24'
_cell_volume   623.46194266
_cell_formula_units_Z   2
loop_
 _symmetry_equiv_pos_site_id
 _symmetry_equiv_pos_as_xyz
  1  'x, y, z'
loop_
 _atom_site_type_symbol
 _atom_site_label
 _atom_site_symmetry_multiplicity
 _atom_site_fract_x
 _atom_site_fract_y
 _atom_site_fract_z
 _atom_site_occupancy
  O  O0  1  0.65679019  0.90946513  0.44282471  1
  O  O1  1  0.15679019  0.59053487  0.55717529  1
  O  O2  1  0.34320981  0.09053487  0.55717529  1
  O  O3  1  0.84320981  0.40946513  0.44282471  1
  O  O4  1  0.88561334  0.07196776  0.34595309  1
  O  O5  1  0.38561334  0.42803224  0.65404691  1
  O  O6  1  0.11438666  0.92803224  0.65404691  1
  O  O7  1  0.61438666  0.57196776  0.34595309  1
  O  O8  1  0.98941790  0.78095138  0.38767038  1
  O  O9  1  0.48941790  0.71904862  0.61232962  1
  O  O10  1  0.01058210  0.21904862  0.61232962  1
  O  O11  1  0.51058210  0.28095138  0.38767038  1
  O  O12  1  0.28124816  0.96631222  0.29277304  1
  O  O13  1  0.78124816  0.53368778  0.70722696  1
  O  O14  1  0.39244849  0.32584592  0.05572308  1
  O  O15  1  0.89244849  0.17415408  0.94427692  1
  O  O16  1  0.60755151  0.67415408  0.94427692  1
  O  O17  1  0.10755151  0.82584592  0.05572308  1
  O  O18  1  0.12915424  0.17311618  0.14342688  1
  O  O19  1  0.62915424  0.32688382  0.85657312  1
  O  O20  1  0.87084576  0.82688382  0.85657312  1
  O  O21  1  0.37084576  0.67311618  0.14342688  1
  O  O22  1  0.21875184  0.46631222  0.29277304  1
  O  O23  1  0.71875184  0.03368778  0.70722696  1
  Cu  Cu24  1  0.50000000  0.50000000  0.00000000  1
  Cu  Cu25  1  0.00000000  0.00000000  0.00000000  1
  Se  Se26  1  0.17871959  0.13232281  0.68382760  1
  Se  Se27  1  0.67871959  0.36767719  0.31617240  1
  Se  Se28  1  0.32475149  0.86968182  0.12779202  1
  Se  Se29  1  0.82475149  0.63031818  0.87220798  1
  Se  Se30  1  0.67524851  0.13031818  0.87220798  1
  Se  Se31  1  0.17524851  0.36968182  0.12779202  1
  Se  Se32  1  0.82128041  0.86767719  0.31617240  1
  Se  Se33  1  0.32128041  0.63232281  0.68382760  1
  La  La34  1  0.33375539  0.76008618  0.41378468  1
  La  La35  1  0.83375539  0.73991382  0.58621532  1
  La  La36  1  0.66624461  0.23991382  0.58621532  1
  La  La37  1  0.16624461  0.26008618  0.41378468  1
