# generated using pymatgen
data_SrGa4O7
_symmetry_space_group_name_H-M   'P 1'
_cell_length_a   5.77642147
_cell_length_b   8.26415841
_cell_length_c   8.26415841
_cell_angle_alpha   68.64246225
_cell_angle_beta   77.27040524
_cell_angle_gamma   77.27040526
_symmetry_Int_Tables_number   1
_chemical_formula_structural   SrGa4O7
_chemical_formula_sum   'Sr2 Ga8 O14'
_cell_volume   354.09736245
_cell_formula_units_Z   2
loop_
 _symmetry_equiv_pos_site_id
 _symmetry_equiv_pos_as_xyz
  1  'x, y, z'
loop_
 _atom_site_type_symbol
 _atom_site_label
 _atom_site_symmetry_multiplicity
 _atom_site_fract_x
 _atom_site_fract_y
 _atom_site_fract_z
 _atom_site_occupancy
  O  O0  1  0.25000000  0.96614783  0.03385217  1
  O  O1  1  0.75000000  0.03385217  0.96614783  1
  O  O2  1  0.14647450  0.12459950  0.63600312  1
  O  O3  1  0.35352550  0.36399688  0.87540050  1
  O  O4  1  0.85352550  0.87540050  0.36399688  1
  O  O5  1  0.64647450  0.63600312  0.12459950  1
  O  O6  1  0.44141432  0.66435098  0.56878871  1
  O  O7  1  0.05858568  0.43121129  0.33564902  1
  O  O8  1  0.90687311  0.25040940  0.12695955  1
  O  O9  1  0.59312689  0.87304045  0.74959060  1
  O  O10  1  0.09312689  0.74959060  0.87304045  1
  O  O11  1  0.40687311  0.12695955  0.25040940  1
  O  O12  1  0.94141432  0.56878871  0.66435098  1
  O  O13  1  0.55858568  0.33564902  0.43121129  1
  Ga  Ga14  1  0.30010425  0.24433017  0.41892841  1
  Ga  Ga15  1  0.19989575  0.58107159  0.75566983  1
  Ga  Ga16  1  0.69989575  0.75566983  0.58107159  1
  Ga  Ga17  1  0.80010425  0.41892841  0.24433017  1
  Ga  Ga18  1  0.25866819  0.94264834  0.81860825  1
  Ga  Ga19  1  0.24133181  0.18139175  0.05735166  1
  Ga  Ga20  1  0.75866819  0.81860825  0.94264834  1
  Ga  Ga21  1  0.74133181  0.05735166  0.18139175  1
  Sr  Sr22  1  0.25000000  0.68904491  0.31095509  1
  Sr  Sr23  1  0.75000000  0.31095509  0.68904491  1
