# generated using pymatgen
data_Mg2B2O5
_symmetry_space_group_name_H-M   'P 1'
_cell_length_a   3.16215193
_cell_length_b   9.29319998
_cell_length_c   12.43499396
_cell_angle_alpha   104.49605489
_cell_angle_beta   90.00000000
_cell_angle_gamma   90.00000000
_symmetry_Int_Tables_number   1
_chemical_formula_structural   Mg2B2O5
_chemical_formula_sum   'Mg8 B8 O20'
_cell_volume   353.78785288
_cell_formula_units_Z   4
loop_
 _symmetry_equiv_pos_site_id
 _symmetry_equiv_pos_as_xyz
  1  'x, y, z'
loop_
 _atom_site_type_symbol
 _atom_site_label
 _atom_site_symmetry_multiplicity
 _atom_site_fract_x
 _atom_site_fract_y
 _atom_site_fract_z
 _atom_site_occupancy
  B  B0  1  0.84971111  0.83072501  0.56045277  1
  B  B1  1  0.34971111  0.16927499  0.93954723  1
  B  B2  1  0.15028889  0.16927499  0.43954723  1
  B  B3  1  0.65028889  0.83072501  0.06045277  1
  B  B4  1  0.27558868  0.64381502  0.15934443  1
  B  B5  1  0.77558868  0.35618498  0.34065557  1
  B  B6  1  0.72441132  0.35618498  0.84065557  1
  B  B7  1  0.22441132  0.64381502  0.65934443  1
  O  O8  1  0.79941198  0.50373758  0.86299262  1
  O  O9  1  0.29941198  0.49626242  0.63700738  1
  O  O10  1  0.20058802  0.49626242  0.13700738  1
  O  O11  1  0.70058802  0.50373758  0.36299262  1
  O  O12  1  0.27202631  0.74135370  0.76204875  1
  O  O13  1  0.77202631  0.25864630  0.73795125  1
  O  O14  1  0.72797369  0.25864630  0.23795125  1
  O  O15  1  0.22797369  0.74135370  0.26204875  1
  O  O16  1  0.77196379  0.81912901  0.95351857  1
  O  O17  1  0.27196379  0.18087099  0.54648143  1
  O  O18  1  0.22803621  0.18087099  0.04648143  1
  O  O19  1  0.72803621  0.81912901  0.45351857  1
  O  O20  1  0.28784599  0.05374492  0.84794251  1
  O  O21  1  0.78784599  0.94625508  0.65205749  1
  O  O22  1  0.71215401  0.94625508  0.15205749  1
  O  O23  1  0.21215401  0.05374492  0.34794251  1
  O  O24  1  0.42250354  0.70055830  0.06954686  1
  O  O25  1  0.92250354  0.29944170  0.43045314  1
  O  O26  1  0.57749646  0.29944170  0.93045314  1
  O  O27  1  0.07749646  0.70055830  0.56954686  1
  Mg  Mg28  1  0.79079069  0.35630061  0.60506562  1
  Mg  Mg29  1  0.29079069  0.64369939  0.89493438  1
  Mg  Mg30  1  0.20920931  0.64369939  0.39493438  1
  Mg  Mg31  1  0.70920931  0.35630061  0.10506562  1
  Mg  Mg32  1  0.71384255  0.89754986  0.31414852  1
  Mg  Mg33  1  0.21384255  0.10245014  0.18585148  1
  Mg  Mg34  1  0.28615745  0.10245014  0.68585148  1
  Mg  Mg35  1  0.78615745  0.89754986  0.81414852  1
