# generated using pymatgen
data_UF3
_symmetry_space_group_name_H-M   'P 1'
_cell_length_a   7.20166062
_cell_length_b   7.20166061
_cell_length_c   7.39865503
_cell_angle_alpha   90.00000000
_cell_angle_beta   90.00000000
_cell_angle_gamma   120.00000003
_symmetry_Int_Tables_number   1
_chemical_formula_structural   UF3
_chemical_formula_sum   'U6 F18'
_cell_volume   332.31405678
_cell_formula_units_Z   6
loop_
 _symmetry_equiv_pos_site_id
 _symmetry_equiv_pos_as_xyz
  1  'x, y, z'
loop_
 _atom_site_type_symbol
 _atom_site_label
 _atom_site_symmetry_multiplicity
 _atom_site_fract_x
 _atom_site_fract_y
 _atom_site_fract_z
 _atom_site_occupancy
  F  F0  1  0.62320234  0.00000000  0.91684642  1
  F  F1  1  0.62320234  0.62320234  0.41684642  1
  F  F2  1  0.00000000  0.37679766  0.41684642  1
  F  F3  1  0.00000000  0.62320234  0.91684642  1
  F  F4  1  0.37679766  0.37679766  0.91684642  1
  F  F5  1  0.37679766  0.00000000  0.41684642  1
  F  F6  1  0.00000000  0.00000000  0.32036938  1
  F  F7  1  0.00000000  0.00000000  0.82036938  1
  F  F8  1  0.33333333  0.66666667  0.20284979  1
  F  F9  1  0.66666667  0.33333333  0.70284979  1
  F  F10  1  0.33333333  0.66666667  0.70284979  1
  F  F11  1  0.66666667  0.33333333  0.20284979  1
  F  F12  1  0.27884249  0.00000000  0.07828785  1
  F  F13  1  0.27884249  0.27884249  0.57828785  1
  F  F14  1  0.00000000  0.72115751  0.57828785  1
  F  F15  1  0.00000000  0.27884249  0.07828785  1
  F  F16  1  0.72115751  0.72115751  0.07828785  1
  F  F17  1  0.72115751  0.00000000  0.57828785  1
  U  U18  1  0.32639694  0.00000000  0.75154274  1
  U  U19  1  0.32639694  0.32639694  0.25154274  1
  U  U20  1  0.00000000  0.67360306  0.25154274  1
  U  U21  1  0.00000000  0.32639694  0.75154274  1
  U  U22  1  0.67360306  0.67360306  0.75154274  1
  U  U23  1  0.67360306  0.00000000  0.25154274  1
