# generated using pymatgen
data_RbSm(PO3)4
_symmetry_space_group_name_H-M   'P 1'
_cell_length_a   7.65417459
_cell_length_b   7.65417458
_cell_length_c   10.74471861
_cell_angle_alpha   101.01846587
_cell_angle_beta   101.01846588
_cell_angle_gamma   116.72503095
_symmetry_Int_Tables_number   1
_chemical_formula_structural   RbSm(PO3)4
_chemical_formula_sum   'Rb2 Sm2 P8 O24'
_cell_volume   523.59735021
_cell_formula_units_Z   2
loop_
 _symmetry_equiv_pos_site_id
 _symmetry_equiv_pos_as_xyz
  1  'x, y, z'
loop_
 _atom_site_type_symbol
 _atom_site_label
 _atom_site_symmetry_multiplicity
 _atom_site_fract_x
 _atom_site_fract_y
 _atom_site_fract_z
 _atom_site_occupancy
  O  O0  1  0.20456490  0.69114995  0.38634878  1
  O  O1  1  0.30885005  0.79543510  0.11365122  1
  O  O2  1  0.79543510  0.30885005  0.61365122  1
  O  O3  1  0.69114995  0.20456490  0.88634878  1
  O  O4  1  0.89994992  0.51588242  0.10496164  1
  O  O5  1  0.48411758  0.10005008  0.39503836  1
  O  O6  1  0.10005008  0.48411758  0.89503836  1
  O  O7  1  0.51588242  0.89994992  0.60496164  1
  O  O8  1  0.84072245  0.86096399  0.09049083  1
  O  O9  1  0.13903601  0.15927755  0.40950917  1
  O  O10  1  0.15927755  0.13903601  0.90950917  1
  O  O11  1  0.86096399  0.84072245  0.59049083  1
  O  O12  1  0.47415250  0.72496680  0.94724017  1
  O  O13  1  0.27503320  0.52584750  0.55275983  1
  O  O14  1  0.52584750  0.27503320  0.05275983  1
  O  O15  1  0.72496680  0.47415250  0.44724017  1
  O  O16  1  0.48945985  0.35901224  0.59148523  1
  O  O17  1  0.64098776  0.51054015  0.90851477  1
  O  O18  1  0.51054015  0.64098776  0.40851477  1
  O  O19  1  0.35901224  0.48945985  0.09148523  1
  O  O20  1  0.74624246  0.83073516  0.83844005  1
  O  O21  1  0.16926484  0.25375754  0.66155995  1
  O  O22  1  0.25375754  0.16926484  0.16155995  1
  O  O23  1  0.83073516  0.74624246  0.33844005  1
  P  P24  1  0.74918690  0.69530028  0.44981436  1
  P  P25  1  0.30469972  0.25081310  0.05018564  1
  P  P26  1  0.25081310  0.30469972  0.55018564  1
  P  P27  1  0.69530028  0.74918690  0.94981436  1
  P  P28  1  0.29281651  0.61957899  0.01213945  1
  P  P29  1  0.38042101  0.70718349  0.48786055  1
  P  P30  1  0.70718349  0.38042101  0.98786055  1
  P  P31  1  0.61957899  0.29281651  0.51213945  1
  Rb  Rb32  1  0.80739519  0.19260481  0.25000000  1
  Rb  Rb33  1  0.19260481  0.80739519  0.75000000  1
  Sm  Sm34  1  0.12266705  0.87733295  0.25000000  1
  Sm  Sm35  1  0.87733295  0.12266705  0.75000000  1
