# generated using pymatgen
data_BaTb2O4
_symmetry_space_group_name_H-M   'P 1'
_cell_length_a   3.50355998
_cell_length_b   10.54317655
_cell_length_c   12.26724102
_cell_angle_alpha   90.00000000
_cell_angle_beta   90.00000000
_cell_angle_gamma   90.00000000
_symmetry_Int_Tables_number   1
_chemical_formula_structural   BaTb2O4
_chemical_formula_sum   'Ba4 Tb8 O16'
_cell_volume   453.13533996
_cell_formula_units_Z   4
loop_
 _symmetry_equiv_pos_site_id
 _symmetry_equiv_pos_as_xyz
  1  'x, y, z'
loop_
 _atom_site_type_symbol
 _atom_site_label
 _atom_site_symmetry_multiplicity
 _atom_site_fract_x
 _atom_site_fract_y
 _atom_site_fract_z
 _atom_site_occupancy
  O  O0  1  0.25000000  0.92949691  0.07426727  1
  O  O1  1  0.75000000  0.07050309  0.92573273  1
  O  O2  1  0.25000000  0.42949691  0.42573273  1
  O  O3  1  0.75000000  0.57050309  0.57426727  1
  O  O4  1  0.25000000  0.01880341  0.71723062  1
  O  O5  1  0.75000000  0.98119659  0.28276938  1
  O  O6  1  0.25000000  0.51880341  0.78276938  1
  O  O7  1  0.75000000  0.48119659  0.21723062  1
  O  O8  1  0.25000000  0.61586531  0.01848085  1
  O  O9  1  0.75000000  0.38413469  0.98151915  1
  O  O10  1  0.25000000  0.11586531  0.48151915  1
  O  O11  1  0.75000000  0.88413469  0.51848085  1
  O  O12  1  0.75000000  0.79050803  0.83986006  1
  O  O13  1  0.25000000  0.20949197  0.16013994  1
  O  O14  1  0.75000000  0.29050803  0.66013994  1
  O  O15  1  0.25000000  0.70949197  0.33986006  1
  Ba  Ba16  1  0.75000000  0.24686343  0.35135389  1
  Ba  Ba17  1  0.25000000  0.75313657  0.64864611  1
  Ba  Ba18  1  0.75000000  0.74686343  0.14864611  1
  Ba  Ba19  1  0.25000000  0.25313657  0.85135389  1
  Tb  Tb20  1  0.25000000  0.92583674  0.88893401  1
  Tb  Tb21  1  0.75000000  0.07416326  0.11106599  1
  Tb  Tb22  1  0.25000000  0.42583674  0.61106599  1
  Tb  Tb23  1  0.75000000  0.57416326  0.38893401  1
  Tb  Tb24  1  0.75000000  0.57756575  0.89046438  1
  Tb  Tb25  1  0.25000000  0.42243425  0.10953562  1
  Tb  Tb26  1  0.75000000  0.07756575  0.60953562  1
  Tb  Tb27  1  0.25000000  0.92243425  0.39046438  1
