# generated using pymatgen
data_NaHoGeO4
_symmetry_space_group_name_H-M   'P 1'
_cell_length_a   5.32246906
_cell_length_b   6.48439601
_cell_length_c   11.48003833
_cell_angle_alpha   90.00000000
_cell_angle_beta   90.00000000
_cell_angle_gamma   90.00000000
_symmetry_Int_Tables_number   1
_chemical_formula_structural   NaHoGeO4
_chemical_formula_sum   'Na4 Ho4 Ge4 O16'
_cell_volume   396.21053000
_cell_formula_units_Z   4
loop_
 _symmetry_equiv_pos_site_id
 _symmetry_equiv_pos_as_xyz
  1  'x, y, z'
loop_
 _atom_site_type_symbol
 _atom_site_label
 _atom_site_symmetry_multiplicity
 _atom_site_fract_x
 _atom_site_fract_y
 _atom_site_fract_z
 _atom_site_occupancy
  O  O0  1  0.17162305  0.75000000  0.04550449  1
  O  O1  1  0.67162305  0.25000000  0.45449551  1
  O  O2  1  0.82837695  0.25000000  0.95449551  1
  O  O3  1  0.32837695  0.75000000  0.54550449  1
  O  O4  1  0.79271318  0.04191147  0.17502544  1
  O  O5  1  0.29271318  0.95808853  0.32497456  1
  O  O6  1  0.20728682  0.54191147  0.82497456  1
  O  O7  1  0.70728682  0.45808853  0.67502544  1
  O  O8  1  0.20728682  0.95808853  0.82497456  1
  O  O9  1  0.70728682  0.04191147  0.67502544  1
  O  O10  1  0.79271318  0.45808853  0.17502544  1
  O  O11  1  0.29271318  0.54191147  0.32497456  1
  O  O12  1  0.77388466  0.75000000  0.38844668  1
  O  O13  1  0.27388466  0.25000000  0.11155332  1
  O  O14  1  0.22611534  0.25000000  0.61155332  1
  O  O15  1  0.72611534  0.75000000  0.88844668  1
  Na  Na16  1  0.50000000  0.00000000  0.00000000  1
  Na  Na17  1  0.00000000  0.00000000  0.50000000  1
  Na  Na18  1  0.50000000  0.50000000  0.00000000  1
  Na  Na19  1  0.00000000  0.50000000  0.50000000  1
  Ge  Ge20  1  0.05288204  0.75000000  0.90206251  1
  Ge  Ge21  1  0.55288204  0.25000000  0.59793749  1
  Ge  Ge22  1  0.94711796  0.25000000  0.09793749  1
  Ge  Ge23  1  0.44711796  0.75000000  0.40206251  1
  Ho  Ho24  1  0.00536053  0.75000000  0.22260567  1
  Ho  Ho25  1  0.50536053  0.25000000  0.27739433  1
  Ho  Ho26  1  0.99463947  0.25000000  0.77739433  1
  Ho  Ho27  1  0.49463947  0.75000000  0.72260567  1
