# generated using pymatgen
data_Rb3AsSe4
_symmetry_space_group_name_H-M   'P 1'
_cell_length_a   9.84282208
_cell_length_b   10.42730998
_cell_length_c   11.51458776
_cell_angle_alpha   90.00000000
_cell_angle_beta   90.00000000
_cell_angle_gamma   90.00000000
_symmetry_Int_Tables_number   1
_chemical_formula_structural   Rb3AsSe4
_chemical_formula_sum   'Rb12 As4 Se16'
_cell_volume   1181.79000687
_cell_formula_units_Z   4
loop_
 _symmetry_equiv_pos_site_id
 _symmetry_equiv_pos_as_xyz
  1  'x, y, z'
loop_
 _atom_site_type_symbol
 _atom_site_label
 _atom_site_symmetry_multiplicity
 _atom_site_fract_x
 _atom_site_fract_y
 _atom_site_fract_z
 _atom_site_occupancy
  As  As0  1  0.76636907  0.97671126  0.25000000  1
  As  As1  1  0.23363093  0.02328874  0.75000000  1
  As  As2  1  0.73363093  0.47671126  0.75000000  1
  As  As3  1  0.26636907  0.52328874  0.25000000  1
  Se  Se4  1  0.35704114  0.97291978  0.92071976  1
  Se  Se5  1  0.85704114  0.52708022  0.57928024  1
  Se  Se6  1  0.14295886  0.47291978  0.07928024  1
  Se  Se7  1  0.64295886  0.02708022  0.42071976  1
  Se  Se8  1  0.02400405  0.91034034  0.75000000  1
  Se  Se9  1  0.52400405  0.58965966  0.75000000  1
  Se  Se10  1  0.47599595  0.41034034  0.25000000  1
  Se  Se11  1  0.97599595  0.08965966  0.25000000  1
  Se  Se12  1  0.64295886  0.02708022  0.07928024  1
  Se  Se13  1  0.35704114  0.97291978  0.57928024  1
  Se  Se14  1  0.85704114  0.52708022  0.92071976  1
  Se  Se15  1  0.14295886  0.47291978  0.42071976  1
  Se  Se16  1  0.81335795  0.75528103  0.25000000  1
  Se  Se17  1  0.31335795  0.74471897  0.25000000  1
  Se  Se18  1  0.68664205  0.25528103  0.75000000  1
  Se  Se19  1  0.18664205  0.24471897  0.75000000  1
  Rb  Rb20  1  0.64847261  0.92109035  0.75000000  1
  Rb  Rb21  1  0.14847261  0.57890965  0.75000000  1
  Rb  Rb22  1  0.85152739  0.42109035  0.25000000  1
  Rb  Rb23  1  0.35152739  0.07890965  0.25000000  1
  Rb  Rb24  1  0.06184978  0.80574681  0.04435895  1
  Rb  Rb25  1  0.56184978  0.69425319  0.45564105  1
  Rb  Rb26  1  0.43815022  0.30574681  0.95564105  1
  Rb  Rb27  1  0.93815022  0.19425319  0.54435895  1
  Rb  Rb28  1  0.93815022  0.19425319  0.95564105  1
  Rb  Rb29  1  0.43815022  0.30574681  0.54435895  1
  Rb  Rb30  1  0.56184978  0.69425319  0.04435895  1
  Rb  Rb31  1  0.06184978  0.80574681  0.45564105  1
