# generated using pymatgen
data_ErPtF7
_symmetry_space_group_name_H-M   'P 1'
_cell_length_a   5.51558002
_cell_length_b   8.81852182
_cell_length_c   11.09795560
_cell_angle_alpha   107.42832448
_cell_angle_beta   90.00000000
_cell_angle_gamma   90.00000000
_symmetry_Int_Tables_number   1
_chemical_formula_structural   ErPtF7
_chemical_formula_sum   'Er4 Pt4 F28'
_cell_volume   515.01561105
_cell_formula_units_Z   4
loop_
 _symmetry_equiv_pos_site_id
 _symmetry_equiv_pos_as_xyz
  1  'x, y, z'
loop_
 _atom_site_type_symbol
 _atom_site_label
 _atom_site_symmetry_multiplicity
 _atom_site_fract_x
 _atom_site_fract_y
 _atom_site_fract_z
 _atom_site_occupancy
  F  F0  1  0.56337692  0.38228638  0.08496093  1
  F  F1  1  0.06337692  0.11771362  0.41503907  1
  F  F2  1  0.43662308  0.61771362  0.91503907  1
  F  F3  1  0.93662308  0.88228638  0.58496093  1
  F  F4  1  0.56255359  0.18022537  0.45659239  1
  F  F5  1  0.06255359  0.31977463  0.04340761  1
  F  F6  1  0.43744641  0.81977463  0.54340761  1
  F  F7  1  0.93744641  0.68022537  0.95659239  1
  F  F8  1  0.22292938  0.61881311  0.14169209  1
  F  F9  1  0.72292938  0.88118689  0.35830791  1
  F  F10  1  0.77707062  0.38118689  0.85830791  1
  F  F11  1  0.27707062  0.11881311  0.64169209  1
  F  F12  1  0.24664466  0.92754269  0.94925372  1
  F  F13  1  0.74664466  0.57245731  0.55074628  1
  F  F14  1  0.75335534  0.07245731  0.05074628  1
  F  F15  1  0.25335534  0.42754269  0.44925372  1
  F  F16  1  0.03498098  0.63845596  0.36280330  1
  F  F17  1  0.53498098  0.86154404  0.13719670  1
  F  F18  1  0.96501902  0.36154404  0.63719670  1
  F  F19  1  0.46501902  0.13845596  0.86280330  1
  F  F20  1  0.94953423  0.07733282  0.82372886  1
  F  F21  1  0.44953423  0.42266718  0.67627114  1
  F  F22  1  0.05046577  0.92266718  0.17627114  1
  F  F23  1  0.55046577  0.57733282  0.32372886  1
  F  F24  1  0.58349484  0.79670854  0.76714832  1
  F  F25  1  0.08349484  0.70329146  0.73285168  1
  F  F26  1  0.41650516  0.20329146  0.23285168  1
  F  F27  1  0.91650516  0.29670854  0.26714832  1
  Er  Er28  1  0.23879640  0.42131052  0.23575313  1
  Er  Er29  1  0.73879640  0.07868948  0.26424687  1
  Er  Er30  1  0.76120360  0.57868948  0.76424687  1
  Er  Er31  1  0.26120360  0.92131052  0.73575313  1
  Pt  Pt32  1  0.24054411  0.77089352  0.04307151  1
  Pt  Pt33  1  0.74054411  0.72910648  0.45692849  1
  Pt  Pt34  1  0.75945589  0.22910648  0.95692849  1
  Pt  Pt35  1  0.25945589  0.27089352  0.54307151  1
