# generated using pymatgen
data_CaZn2(PO4)2
_symmetry_space_group_name_H-M   'P 1'
_cell_length_a   5.04255695
_cell_length_b   8.53745980
_cell_length_c   9.08796753
_cell_angle_alpha   113.47630334
_cell_angle_beta   102.21131927
_cell_angle_gamma   94.09643329
_symmetry_Int_Tables_number   1
_chemical_formula_structural   CaZn2(PO4)2
_chemical_formula_sum   'Ca2 Zn4 P4 O16'
_cell_volume   345.40772784
_cell_formula_units_Z   2
loop_
 _symmetry_equiv_pos_site_id
 _symmetry_equiv_pos_as_xyz
  1  'x, y, z'
loop_
 _atom_site_type_symbol
 _atom_site_label
 _atom_site_symmetry_multiplicity
 _atom_site_fract_x
 _atom_site_fract_y
 _atom_site_fract_z
 _atom_site_occupancy
  O  O0  1  0.03977334  0.43893502  0.83226985  1
  O  O1  1  0.96022666  0.56106498  0.16773015  1
  O  O2  1  0.44177491  0.05215645  0.19962814  1
  O  O3  1  0.55822509  0.94784355  0.80037186  1
  O  O4  1  0.06106249  0.72746812  0.47443609  1
  O  O5  1  0.93893751  0.27253188  0.52556391  1
  O  O6  1  0.99631004  0.11758659  0.71540094  1
  O  O7  1  0.00368996  0.88241341  0.28459906  1
  O  O8  1  0.43267979  0.36717702  0.35841406  1
  O  O9  1  0.56732021  0.63282298  0.64158594  1
  O  O10  1  0.60803890  0.74325694  0.95018294  1
  O  O11  1  0.39196110  0.25674306  0.04981706  1
  O  O12  1  0.42103438  0.28833206  0.70475167  1
  O  O13  1  0.57896562  0.71166794  0.29524833  1
  O  O14  1  0.99944242  0.82935447  0.85194616  1
  O  O15  1  0.00055758  0.17064553  0.14805384  1
  P  P16  1  0.89025510  0.71915972  0.30253477  1
  P  P17  1  0.10974490  0.28084028  0.69746523  1
  P  P18  1  0.32048780  0.20874015  0.18242502  1
  P  P19  1  0.67951220  0.79125985  0.81757498  1
  Ca  Ca20  1  0.77514024  0.26745557  0.94754625  1
  Ca  Ca21  1  0.22485976  0.73254443  0.05245375  1
  Zn  Zn22  1  0.61736646  0.38988274  0.58869681  1
  Zn  Zn23  1  0.38263354  0.61011726  0.41130319  1
  Zn  Zn24  1  0.84251223  0.08331021  0.28806675  1
  Zn  Zn25  1  0.15748777  0.91668979  0.71193325  1
