# generated using pymatgen
data_Sr3ZnRhO6
_symmetry_space_group_name_H-M   'P 1'
_cell_length_a   6.74637806
_cell_length_b   6.74637806
_cell_length_c   6.74637806
_cell_angle_alpha   91.93305752
_cell_angle_beta   91.93305750
_cell_angle_gamma   91.93305753
_symmetry_Int_Tables_number   1
_chemical_formula_structural   Sr3ZnRhO6
_chemical_formula_sum   'Sr6 Zn2 Rh2 O12'
_cell_volume   306.51575141
_cell_formula_units_Z   2
loop_
 _symmetry_equiv_pos_site_id
 _symmetry_equiv_pos_as_xyz
  1  'x, y, z'
loop_
 _atom_site_type_symbol
 _atom_site_label
 _atom_site_symmetry_multiplicity
 _atom_site_fract_x
 _atom_site_fract_y
 _atom_site_fract_z
 _atom_site_occupancy
  O  O0  1  0.78567546  0.59237640  0.45923200  1
  O  O1  1  0.59237640  0.45923200  0.78567546  1
  O  O2  1  0.45923200  0.78567546  0.59237640  1
  O  O3  1  0.04076800  0.90762360  0.71432454  1
  O  O4  1  0.90762360  0.71432454  0.04076800  1
  O  O5  1  0.71432454  0.04076800  0.90762360  1
  O  O6  1  0.21432454  0.40762360  0.54076800  1
  O  O7  1  0.40762360  0.54076800  0.21432454  1
  O  O8  1  0.54076800  0.21432454  0.40762360  1
  O  O9  1  0.95923200  0.09237640  0.28567546  1
  O  O10  1  0.28567546  0.95923200  0.09237640  1
  O  O11  1  0.09237640  0.28567546  0.95923200  1
  Zn  Zn12  1  0.25000000  0.25000000  0.25000000  1
  Zn  Zn13  1  0.75000000  0.75000000  0.75000000  1
  Sr  Sr14  1  0.25000000  0.61434980  0.88565020  1
  Sr  Sr15  1  0.61434980  0.88565020  0.25000000  1
  Sr  Sr16  1  0.11434980  0.75000000  0.38565020  1
  Sr  Sr17  1  0.75000000  0.38565020  0.11434980  1
  Sr  Sr18  1  0.38565020  0.11434980  0.75000000  1
  Sr  Sr19  1  0.88565020  0.25000000  0.61434980  1
  Rh  Rh20  1  0.00000000  0.00000000  0.00000000  1
  Rh  Rh21  1  0.50000000  0.50000000  0.50000000  1
