# generated using pymatgen
data_CsMgPO4
_symmetry_space_group_name_H-M   'P 1'
_cell_length_a   5.59356784
_cell_length_b   9.06120151
_cell_length_c   9.89958613
_cell_angle_alpha   90.00000000
_cell_angle_beta   90.00000000
_cell_angle_gamma   90.00000000
_symmetry_Int_Tables_number   1
_chemical_formula_structural   CsMgPO4
_chemical_formula_sum   'Cs4 Mg4 P4 O16'
_cell_volume   501.75503227
_cell_formula_units_Z   4
loop_
 _symmetry_equiv_pos_site_id
 _symmetry_equiv_pos_as_xyz
  1  'x, y, z'
loop_
 _atom_site_type_symbol
 _atom_site_label
 _atom_site_symmetry_multiplicity
 _atom_site_fract_x
 _atom_site_fract_y
 _atom_site_fract_z
 _atom_site_occupancy
  O  O0  1  0.25000000  0.53543599  0.08518448  1
  O  O1  1  0.75000000  0.46456401  0.91481552  1
  O  O2  1  0.25000000  0.03543599  0.41481552  1
  O  O3  1  0.75000000  0.96456401  0.58518448  1
  O  O4  1  0.97552273  0.23521689  0.98955230  1
  O  O5  1  0.47552273  0.76478311  0.01044770  1
  O  O6  1  0.52447727  0.73521689  0.51044770  1
  O  O7  1  0.02447727  0.26478311  0.48955230  1
  O  O8  1  0.02447727  0.76478311  0.01044770  1
  O  O9  1  0.52447727  0.23521689  0.98955230  1
  O  O10  1  0.47552273  0.26478311  0.48955230  1
  O  O11  1  0.97552273  0.73521689  0.51044770  1
  O  O12  1  0.75000000  0.73619044  0.73152531  1
  O  O13  1  0.25000000  0.26380956  0.26847469  1
  O  O14  1  0.75000000  0.23619044  0.76847469  1
  O  O15  1  0.25000000  0.76380956  0.23152531  1
  Mg  Mg16  1  0.25000000  0.32321952  0.08127108  1
  Mg  Mg17  1  0.75000000  0.67678048  0.91872892  1
  Mg  Mg18  1  0.75000000  0.17678048  0.58127108  1
  Mg  Mg19  1  0.25000000  0.82321952  0.41872892  1
  P  P20  1  0.25000000  0.70545329  0.08496426  1
  P  P21  1  0.25000000  0.20545329  0.41503574  1
  P  P22  1  0.75000000  0.29454671  0.91503574  1
  P  P23  1  0.75000000  0.79454671  0.58496426  1
  Cs  Cs24  1  0.25000000  0.99812541  0.80451274  1
  Cs  Cs25  1  0.75000000  0.00187459  0.19548726  1
  Cs  Cs26  1  0.25000000  0.49812541  0.69548726  1
  Cs  Cs27  1  0.75000000  0.50187459  0.30451274  1
