# generated using pymatgen
data_Ba2Tl2O5
_symmetry_space_group_name_H-M   'P 1'
_cell_length_a   6.18044734
_cell_length_b   6.44775374
_cell_length_c   17.36868919
_cell_angle_alpha   90.00000000
_cell_angle_beta   90.00000000
_cell_angle_gamma   90.00000000
_symmetry_Int_Tables_number   1
_chemical_formula_structural   Ba2Tl2O5
_chemical_formula_sum   'Ba8 Tl8 O20'
_cell_volume   692.14230680
_cell_formula_units_Z   4
loop_
 _symmetry_equiv_pos_site_id
 _symmetry_equiv_pos_as_xyz
  1  'x, y, z'
loop_
 _atom_site_type_symbol
 _atom_site_label
 _atom_site_symmetry_multiplicity
 _atom_site_fract_x
 _atom_site_fract_y
 _atom_site_fract_z
 _atom_site_occupancy
  O  O0  1  0.38605976  0.87941138  0.25000000  1
  O  O1  1  0.88605976  0.62058862  0.25000000  1
  O  O2  1  0.11394024  0.37941138  0.75000000  1
  O  O3  1  0.61394024  0.12058862  0.75000000  1
  O  O4  1  0.04671667  0.92649558  0.63925778  1
  O  O5  1  0.54671667  0.57350442  0.86074222  1
  O  O6  1  0.45328333  0.42649558  0.36074222  1
  O  O7  1  0.95328333  0.07350442  0.13925778  1
  O  O8  1  0.95328333  0.07350442  0.36074222  1
  O  O9  1  0.45328333  0.42649558  0.13925778  1
  O  O10  1  0.54671667  0.57350442  0.63925778  1
  O  O11  1  0.04671667  0.92649558  0.86074222  1
  O  O12  1  0.24596979  0.77721168  0.48521543  1
  O  O13  1  0.74596979  0.72278832  0.01478457  1
  O  O14  1  0.25403021  0.27721168  0.51478457  1
  O  O15  1  0.75403021  0.22278832  0.98521543  1
  O  O16  1  0.24596979  0.77721168  0.01478457  1
  O  O17  1  0.74596979  0.72278832  0.48521543  1
  O  O18  1  0.25403021  0.27721168  0.98521543  1
  O  O19  1  0.75403021  0.22278832  0.51478457  1
  Ba  Ba20  1  0.49102716  0.98114061  0.88879656  1
  Ba  Ba21  1  0.99102716  0.51885939  0.61120344  1
  Ba  Ba22  1  0.00897284  0.48114061  0.11120344  1
  Ba  Ba23  1  0.50897284  0.01885939  0.38879656  1
  Ba  Ba24  1  0.50897284  0.01885939  0.11120344  1
  Ba  Ba25  1  0.00897284  0.48114061  0.38879656  1
  Ba  Ba26  1  0.99102716  0.51885939  0.88879656  1
  Ba  Ba27  1  0.49102716  0.98114061  0.61120344  1
  Tl  Tl28  1  0.00000000  0.00000000  0.00000000  1
  Tl  Tl29  1  0.50000000  0.50000000  0.50000000  1
  Tl  Tl30  1  0.50000000  0.50000000  0.00000000  1
  Tl  Tl31  1  0.00000000  0.00000000  0.50000000  1
  Tl  Tl32  1  0.97467141  0.05571899  0.75000000  1
  Tl  Tl33  1  0.47467141  0.44428101  0.75000000  1
  Tl  Tl34  1  0.52532859  0.55571899  0.25000000  1
  Tl  Tl35  1  0.02532859  0.94428101  0.25000000  1
