# generated using pymatgen
data_Cs6Si2O7
_symmetry_space_group_name_H-M   'P 1'
_cell_length_a   7.28968368
_cell_length_b   9.64442715
_cell_length_c   9.82513515
_cell_angle_alpha   90.00000000
_cell_angle_beta   90.01117576
_cell_angle_gamma   90.00000000
_symmetry_Int_Tables_number   1
_chemical_formula_structural   Cs6Si2O7
_chemical_formula_sum   'Cs12 Si4 O14'
_cell_volume   690.75437644
_cell_formula_units_Z   2
loop_
 _symmetry_equiv_pos_site_id
 _symmetry_equiv_pos_as_xyz
  1  'x, y, z'
loop_
 _atom_site_type_symbol
 _atom_site_label
 _atom_site_symmetry_multiplicity
 _atom_site_fract_x
 _atom_site_fract_y
 _atom_site_fract_z
 _atom_site_occupancy
  O  O0  1  0.06691065  0.26862581  0.06222439  1
  O  O1  1  0.00000000  0.00000000  0.00000000  1
  O  O2  1  0.50000000  0.50000000  0.50000000  1
  O  O3  1  0.95743474  0.92446941  0.73471499  1
  O  O4  1  0.43308935  0.76862581  0.43777561  1
  O  O5  1  0.93308935  0.73137419  0.93777561  1
  O  O6  1  0.56691065  0.23137419  0.56222439  1
  O  O7  1  0.76508526  0.65399035  0.37554522  1
  O  O8  1  0.73491474  0.15399035  0.12445478  1
  O  O9  1  0.23491474  0.34600965  0.62445478  1
  O  O10  1  0.26508526  0.84600965  0.87554522  1
  O  O11  1  0.45743474  0.57553059  0.23471499  1
  O  O12  1  0.04256526  0.07553059  0.26528501  1
  O  O13  1  0.54256526  0.42446941  0.76528501  1
  Si  Si14  1  0.54070941  0.62847243  0.38218964  1
  Si  Si15  1  0.04070941  0.87152757  0.88218964  1
  Si  Si16  1  0.45929059  0.37152757  0.61781036  1
  Si  Si17  1  0.95929059  0.12847243  0.11781036  1
  Cs  Cs18  1  0.88218408  0.35585490  0.40309991  1
  Cs  Cs19  1  0.38218408  0.14414510  0.90309991  1
  Cs  Cs20  1  0.11781592  0.64414510  0.59690009  1
  Cs  Cs21  1  0.74935088  0.97277615  0.45516619  1
  Cs  Cs22  1  0.75064912  0.47277615  0.04483381  1
  Cs  Cs23  1  0.25064912  0.02722385  0.54483381  1
  Cs  Cs24  1  0.24935088  0.52722385  0.95516619  1
  Cs  Cs25  1  0.38400253  0.27599899  0.27278476  1
  Cs  Cs26  1  0.11599747  0.77599899  0.22721524  1
  Cs  Cs27  1  0.61599747  0.72400101  0.72721524  1
  Cs  Cs28  1  0.88400253  0.22400101  0.77278476  1
  Cs  Cs29  1  0.61781592  0.85585490  0.09690009  1
