# generated using pymatgen
data_LiNiPO4
_symmetry_space_group_name_H-M   'P 1'
_cell_length_a   5.94769721
_cell_length_b   10.06334100
_cell_length_c   10.02602940
_cell_angle_alpha   90.00000000
_cell_angle_beta   94.16863307
_cell_angle_gamma   90.00000000
_symmetry_Int_Tables_number   1
_chemical_formula_structural   LiNiPO4
_chemical_formula_sum   'Li8 Ni8 P8 O32'
_cell_volume   598.50741023
_cell_formula_units_Z   8
loop_
 _symmetry_equiv_pos_site_id
 _symmetry_equiv_pos_as_xyz
  1  'x, y, z'
loop_
 _atom_site_type_symbol
 _atom_site_label
 _atom_site_symmetry_multiplicity
 _atom_site_fract_x
 _atom_site_fract_y
 _atom_site_fract_z
 _atom_site_occupancy
  Li  Li0  1  0.13817594  0.09442373  0.46445672  1
  Li  Li1  1  0.13817594  0.40557627  0.96445672  1
  Li  Li2  1  0.36399815  0.56568583  0.73146269  1
  Li  Li3  1  0.36399815  0.93431417  0.23146269  1
  Li  Li4  1  0.63600185  0.06568583  0.76853731  1
  Li  Li5  1  0.63600185  0.43431417  0.26853731  1
  Li  Li6  1  0.86182406  0.59442373  0.03554328  1
  Li  Li7  1  0.86182406  0.90557627  0.53554328  1
  Ni  Ni8  1  0.11707546  0.83152919  0.86789826  1
  Ni  Ni9  1  0.11707546  0.66847081  0.36789826  1
  Ni  Ni10  1  0.38131013  0.29133896  0.63124404  1
  Ni  Ni11  1  0.38131013  0.20866104  0.13124404  1
  Ni  Ni12  1  0.61868987  0.79133896  0.86875596  1
  Ni  Ni13  1  0.61868987  0.70866104  0.36875596  1
  Ni  Ni14  1  0.88292454  0.33152919  0.63210174  1
  Ni  Ni15  1  0.88292454  0.16847081  0.13210174  1
  P  P16  1  0.14265446  0.10864955  0.85089812  1
  P  P17  1  0.14265446  0.39135045  0.35089812  1
  P  P18  1  0.37159271  0.85605195  0.60423092  1
  P  P19  1  0.37159271  0.64394805  0.10423092  1
  P  P20  1  0.62840729  0.35605195  0.89576908  1
  P  P21  1  0.62840729  0.14394805  0.39576908  1
  P  P22  1  0.85734554  0.60864955  0.64910188  1
  P  P23  1  0.85734554  0.89135045  0.14910188  1
  O  O24  1  0.12460885  0.19418500  0.98337586  1
  O  O25  1  0.06049478  0.51282225  0.66592166  1
  O  O26  1  0.12460885  0.30581500  0.48337586  1
  O  O27  1  0.06049478  0.98717775  0.16592166  1
  O  O28  1  0.13657554  0.20920543  0.72952916  1
  O  O29  1  0.16490634  0.94223742  0.58296197  1
  O  O30  1  0.13657554  0.29079457  0.22952916  1
  O  O31  1  0.16490634  0.55776258  0.08296197  1
  O  O32  1  0.34843758  0.76665385  0.73380087  1
  O  O33  1  0.35881492  0.02576237  0.86196679  1
  O  O34  1  0.34843758  0.73334615  0.23380087  1
  O  O35  1  0.35881492  0.47423763  0.36196679  1
  O  O36  1  0.40487809  0.42946472  0.87245766  1
  O  O37  1  0.37863943  0.74370692  0.98378462  1
  O  O38  1  0.40487809  0.07053528  0.37245766  1
  O  O39  1  0.37863943  0.75629308  0.48378462  1
  O  O40  1  0.62136057  0.24370692  0.51621538  1
  O  O41  1  0.59512191  0.92946472  0.62754234  1
  O  O42  1  0.62136057  0.25629308  0.01621538  1
  O  O43  1  0.59512191  0.57053528  0.12754234  1
  O  O44  1  0.64118508  0.52576237  0.63803321  1
  O  O45  1  0.65156242  0.26665385  0.76619913  1
  O  O46  1  0.64118508  0.97423763  0.13803321  1
  O  O47  1  0.65156242  0.23334615  0.26619913  1
  O  O48  1  0.83509366  0.44223742  0.91703803  1
  O  O49  1  0.86342446  0.70920543  0.77047084  1
  O  O50  1  0.83509366  0.05776258  0.41703803  1
  O  O51  1  0.86342446  0.79079457  0.27047084  1
  O  O52  1  0.93950522  0.01282225  0.83407834  1
  O  O53  1  0.87539115  0.69418500  0.51662414  1
  O  O54  1  0.93950522  0.48717775  0.33407834  1
  O  O55  1  0.87539115  0.80581500  0.01662414  1
