# generated using pymatgen
data_Ba2Ge2Se5
_symmetry_space_group_name_H-M   'P 1'
_cell_length_a   9.40397984
_cell_length_b   9.24914434
_cell_length_c   12.84994087
_cell_angle_alpha   90.00000000
_cell_angle_beta   90.00000000
_cell_angle_gamma   90.00000000
_symmetry_Int_Tables_number   1
_chemical_formula_structural   Ba2Ge2Se5
_chemical_formula_sum   'Ba8 Ge8 Se20'
_cell_volume   1117.67201175
_cell_formula_units_Z   4
loop_
 _symmetry_equiv_pos_site_id
 _symmetry_equiv_pos_as_xyz
  1  'x, y, z'
loop_
 _atom_site_type_symbol
 _atom_site_label
 _atom_site_symmetry_multiplicity
 _atom_site_fract_x
 _atom_site_fract_y
 _atom_site_fract_z
 _atom_site_occupancy
  Ge  Ge0  1  0.02571946  0.25000000  0.46378098  1
  Ge  Ge1  1  0.97428054  0.75000000  0.53621902  1
  Ge  Ge2  1  0.47428054  0.25000000  0.96378098  1
  Ge  Ge3  1  0.52571946  0.75000000  0.03621902  1
  Ge  Ge4  1  0.18337344  0.75000000  0.09618955  1
  Ge  Ge5  1  0.68337344  0.25000000  0.40381045  1
  Ge  Ge6  1  0.81662656  0.25000000  0.90381045  1
  Ge  Ge7  1  0.31662656  0.75000000  0.59618955  1
  Se  Se8  1  0.88215036  0.75000000  0.71718645  1
  Se  Se9  1  0.38215036  0.25000000  0.78281355  1
  Se  Se10  1  0.11784964  0.25000000  0.28281355  1
  Se  Se11  1  0.61784964  0.75000000  0.21718645  1
  Se  Se12  1  0.47545983  0.25000000  0.50625714  1
  Se  Se13  1  0.02454017  0.25000000  0.00625714  1
  Se  Se14  1  0.97545983  0.75000000  0.99374286  1
  Se  Se15  1  0.52454017  0.75000000  0.49374286  1
  Se  Se16  1  0.38425750  0.75000000  0.77541416  1
  Se  Se17  1  0.88425750  0.25000000  0.72458584  1
  Se  Se18  1  0.61574250  0.25000000  0.22458584  1
  Se  Se19  1  0.11574250  0.75000000  0.27541416  1
  Se  Se20  1  0.17253842  0.95708682  0.55824472  1
  Se  Se21  1  0.67253842  0.04291318  0.94175528  1
  Se  Se22  1  0.82746158  0.45708682  0.44175528  1
  Se  Se23  1  0.32746158  0.54291318  0.05824472  1
  Se  Se24  1  0.82746158  0.04291318  0.44175528  1
  Se  Se25  1  0.32746158  0.95708682  0.05824472  1
  Se  Se26  1  0.17253842  0.54291318  0.55824472  1
  Se  Se27  1  0.67253842  0.45708682  0.94175528  1
  Ba  Ba28  1  0.12346167  0.50402675  0.82180657  1
  Ba  Ba29  1  0.62346167  0.49597325  0.67819343  1
  Ba  Ba30  1  0.87653833  0.00402675  0.17819343  1
  Ba  Ba31  1  0.37653833  0.99597325  0.32180657  1
  Ba  Ba32  1  0.87653833  0.49597325  0.17819343  1
  Ba  Ba33  1  0.37653833  0.50402675  0.32180657  1
  Ba  Ba34  1  0.12346167  0.99597325  0.82180657  1
  Ba  Ba35  1  0.62346167  0.00402675  0.67819343  1
