# generated using pymatgen
data_V3P
_symmetry_space_group_name_H-M   'P 1'
_cell_length_a   4.74355876
_cell_length_b   9.33978632
_cell_length_c   9.33978632
_cell_angle_alpha   90.00000000
_cell_angle_beta   90.00000000
_cell_angle_gamma   90.00000000
_symmetry_Int_Tables_number   1
_chemical_formula_structural   V3P
_chemical_formula_sum   'V24 P8'
_cell_volume   413.78826066
_cell_formula_units_Z   8
loop_
 _symmetry_equiv_pos_site_id
 _symmetry_equiv_pos_as_xyz
  1  'x, y, z'
loop_
 _atom_site_type_symbol
 _atom_site_label
 _atom_site_symmetry_multiplicity
 _atom_site_fract_x
 _atom_site_fract_y
 _atom_site_fract_z
 _atom_site_occupancy
  P  P0  1  0.98367509  0.54185050  0.77150073  1
  P  P1  1  0.48367509  0.22849927  0.04185050  1
  P  P2  1  0.48367509  0.27150073  0.45814950  1
  P  P3  1  0.98367509  0.95814950  0.72849927  1
  P  P4  1  0.01632491  0.45814950  0.22849927  1
  P  P5  1  0.51632491  0.77150073  0.95814950  1
  P  P6  1  0.51632491  0.72849927  0.54185050  1
  P  P7  1  0.01632491  0.04185050  0.27150073  1
  V  V8  1  0.51387675  0.10227282  0.26105727  1
  V  V9  1  0.01387675  0.73894273  0.60227282  1
  V  V10  1  0.01387675  0.76105727  0.89772718  1
  V  V11  1  0.51387675  0.39772718  0.23894273  1
  V  V12  1  0.48612325  0.89772718  0.73894273  1
  V  V13  1  0.98612325  0.26105727  0.39772718  1
  V  V14  1  0.98612325  0.23894273  0.10227282  1
  V  V15  1  0.48612325  0.60227282  0.76105727  1
  V  V16  1  0.24087829  0.05519333  0.53407219  1
  V  V17  1  0.74087829  0.46592781  0.55519333  1
  V  V18  1  0.74087829  0.03407219  0.94480667  1
  V  V19  1  0.24087829  0.44480667  0.96592781  1
  V  V20  1  0.75912171  0.94480667  0.46592781  1
  V  V21  1  0.25912171  0.53407219  0.44480667  1
  V  V22  1  0.25912171  0.96592781  0.05519333  1
  V  V23  1  0.75912171  0.55519333  0.03407219  1
  V  V24  1  0.26905512  0.66729420  0.15793089  1
  V  V25  1  0.76905512  0.84206911  0.16729420  1
  V  V26  1  0.76905512  0.65793089  0.33270580  1
  V  V27  1  0.26905512  0.83270580  0.34206911  1
  V  V28  1  0.73094488  0.33270580  0.84206911  1
  V  V29  1  0.23094488  0.15793089  0.83270580  1
  V  V30  1  0.23094488  0.34206911  0.66729420  1
  V  V31  1  0.73094488  0.16729420  0.65793089  1
