# generated using pymatgen
data_KGaP2O7
_symmetry_space_group_name_H-M   'P 1'
_cell_length_a   7.44513783
_cell_length_b   8.29662137
_cell_length_c   9.98509435
_cell_angle_alpha   90.00000000
_cell_angle_beta   90.00000000
_cell_angle_gamma   106.90537738
_symmetry_Int_Tables_number   1
_chemical_formula_structural   KGaP2O7
_chemical_formula_sum   'K4 Ga4 P8 O28'
_cell_volume   590.12108557
_cell_formula_units_Z   4
loop_
 _symmetry_equiv_pos_site_id
 _symmetry_equiv_pos_as_xyz
  1  'x, y, z'
loop_
 _atom_site_type_symbol
 _atom_site_label
 _atom_site_symmetry_multiplicity
 _atom_site_fract_x
 _atom_site_fract_y
 _atom_site_fract_z
 _atom_site_occupancy
  O  O0  1  0.66627440  0.68891074  0.55578060  1
  O  O1  1  0.33372560  0.81108926  0.05578060  1
  O  O2  1  0.33372560  0.31108926  0.44421940  1
  O  O3  1  0.66627440  0.18891074  0.94421940  1
  O  O4  1  0.92016332  0.24750493  0.76310738  1
  O  O5  1  0.07983668  0.25249507  0.26310738  1
  O  O6  1  0.07983668  0.75249507  0.23689262  1
  O  O7  1  0.92016332  0.74750493  0.73689262  1
  O  O8  1  0.00843986  0.27792702  0.00461600  1
  O  O9  1  0.99156014  0.22207298  0.50461600  1
  O  O10  1  0.99156014  0.72207298  0.99538400  1
  O  O11  1  0.00843986  0.77792702  0.49538400  1
  O  O12  1  0.85644600  0.98525883  0.90783100  1
  O  O13  1  0.14355400  0.51474117  0.40783100  1
  O  O14  1  0.14355400  0.01474117  0.09216900  1
  O  O15  1  0.85644600  0.48525883  0.59216900  1
  O  O16  1  0.67982409  0.98864706  0.60412207  1
  O  O17  1  0.32017591  0.51135294  0.10412207  1
  O  O18  1  0.32017591  0.01135294  0.39587793  1
  O  O19  1  0.67982409  0.48864706  0.89587793  1
  O  O20  1  0.36261656  0.76323520  0.57608916  1
  O  O21  1  0.63738344  0.73676480  0.07608916  1
  O  O22  1  0.63738344  0.23676480  0.42391084  1
  O  O23  1  0.36261656  0.26323520  0.92391084  1
  O  O24  1  0.54802235  0.75672641  0.78267667  1
  O  O25  1  0.45197765  0.74327359  0.28267667  1
  O  O26  1  0.45197765  0.24327359  0.21732333  1
  O  O27  1  0.54802235  0.25672641  0.71732333  1
  P  P28  1  0.87059273  0.66948022  0.59691705  1
  P  P29  1  0.12940727  0.83051978  0.09691705  1
  P  P30  1  0.12940727  0.33051978  0.40308295  1
  P  P31  1  0.87059273  0.16948022  0.90308295  1
  P  P32  1  0.56163589  0.30950349  0.86593454  1
  P  P33  1  0.43836411  0.19049651  0.36593454  1
  P  P34  1  0.43836411  0.69049651  0.13406546  1
  P  P35  1  0.56163589  0.80950349  0.63406546  1
  K  K36  1  0.82297660  0.94357458  0.32098868  1
  K  K37  1  0.17702340  0.55642542  0.82098868  1
  K  K38  1  0.17702340  0.05642542  0.67901132  1
  K  K39  1  0.82297660  0.44357458  0.17901132  1
  Ga  Ga40  1  0.76197914  0.24063601  0.60078242  1
  Ga  Ga41  1  0.23802086  0.25936399  0.10078242  1
  Ga  Ga42  1  0.23802086  0.75936399  0.39921758  1
  Ga  Ga43  1  0.76197914  0.74063601  0.89921758  1
