# generated using pymatgen
data_BaMgP2O7
_symmetry_space_group_name_H-M   'P 1'
_cell_length_a   5.55309841
_cell_length_b   8.65081062
_cell_length_c   12.95039180
_cell_angle_alpha   90.00000000
_cell_angle_beta   91.45785581
_cell_angle_gamma   90.00000000
_symmetry_Int_Tables_number   1
_chemical_formula_structural   BaMgP2O7
_chemical_formula_sum   'Ba4 Mg4 P8 O28'
_cell_volume   621.91994099
_cell_formula_units_Z   4
loop_
 _symmetry_equiv_pos_site_id
 _symmetry_equiv_pos_as_xyz
  1  'x, y, z'
loop_
 _atom_site_type_symbol
 _atom_site_label
 _atom_site_symmetry_multiplicity
 _atom_site_fract_x
 _atom_site_fract_y
 _atom_site_fract_z
 _atom_site_occupancy
  O  O0  1  0.51272148  0.90433099  0.20676009  1
  O  O1  1  0.98727852  0.40433099  0.29323991  1
  O  O2  1  0.48727852  0.09566901  0.79323991  1
  O  O3  1  0.01272148  0.59566901  0.70676009  1
  O  O4  1  0.05837692  0.18972182  0.49824729  1
  O  O5  1  0.44162308  0.68972182  0.00175271  1
  O  O6  1  0.94162308  0.81027818  0.50175271  1
  O  O7  1  0.55837692  0.31027818  0.99824729  1
  O  O8  1  0.82913956  0.10743707  0.15431308  1
  O  O9  1  0.67086044  0.60743707  0.34568692  1
  O  O10  1  0.17086044  0.89256293  0.84568692  1
  O  O11  1  0.32913956  0.39256293  0.65431308  1
  O  O12  1  0.64738377  0.16042017  0.58098918  1
  O  O13  1  0.85261623  0.66042017  0.91901082  1
  O  O14  1  0.35261623  0.83957983  0.41901082  1
  O  O15  1  0.14738377  0.33957983  0.08098918  1
  O  O16  1  0.30298430  0.64263144  0.55798185  1
  O  O17  1  0.19701570  0.14263144  0.94201815  1
  O  O18  1  0.69701570  0.35736856  0.44201815  1
  O  O19  1  0.80298430  0.85736856  0.05798185  1
  O  O20  1  0.44769787  0.63585960  0.74884890  1
  O  O21  1  0.05230213  0.13585960  0.75115110  1
  O  O22  1  0.55230213  0.36414040  0.25115110  1
  O  O23  1  0.94769787  0.86414040  0.24884890  1
  O  O24  1  0.21149149  0.42466890  0.89332521  1
  O  O25  1  0.28850851  0.92466890  0.60667479  1
  O  O26  1  0.78850851  0.57533110  0.10667479  1
  O  O27  1  0.71149149  0.07533110  0.39332521  1
  Mg  Mg28  1  0.78798731  0.33365764  0.12152968  1
  Mg  Mg29  1  0.71201269  0.83365764  0.37847032  1
  Mg  Mg30  1  0.21201269  0.66634236  0.87847032  1
  Mg  Mg31  1  0.28798731  0.16634236  0.62152968  1
  P  P32  1  0.78403451  0.18585797  0.48156010  1
  P  P33  1  0.71596549  0.68585797  0.01843990  1
  P  P34  1  0.21596549  0.81414203  0.51843990  1
  P  P35  1  0.28403451  0.31414203  0.98156010  1
  P  P36  1  0.76749982  0.93834438  0.16964318  1
  P  P37  1  0.73250018  0.43834438  0.33035682  1
  P  P38  1  0.23250018  0.06165562  0.83035682  1
  P  P39  1  0.26749982  0.56165562  0.66964318  1
  Ba  Ba40  1  0.23940983  0.12679204  0.29704077  1
  Ba  Ba41  1  0.26059017  0.62679204  0.20295923  1
  Ba  Ba42  1  0.76059017  0.87320796  0.70295923  1
  Ba  Ba43  1  0.73940983  0.37320796  0.79704077  1
