# generated using pymatgen
data_Ta2Tl4S11
_symmetry_space_group_name_H-M   'P 1'
_cell_length_a   8.21035563
_cell_length_b   9.19632068
_cell_length_c   13.49371703
_cell_angle_alpha   72.25392396
_cell_angle_beta   89.19912766
_cell_angle_gamma   84.89523504
_symmetry_Int_Tables_number   1
_chemical_formula_structural   Ta2Tl4S11
_chemical_formula_sum   'Ta4 Tl8 S22'
_cell_volume   966.42243018
_cell_formula_units_Z   2
loop_
 _symmetry_equiv_pos_site_id
 _symmetry_equiv_pos_as_xyz
  1  'x, y, z'
loop_
 _atom_site_type_symbol
 _atom_site_label
 _atom_site_symmetry_multiplicity
 _atom_site_fract_x
 _atom_site_fract_y
 _atom_site_fract_z
 _atom_site_occupancy
  S  S0  1  0.99594315  0.28855738  0.46561168  1
  S  S1  1  0.00405685  0.71144262  0.53438832  1
  S  S2  1  0.61478914  0.81138218  0.62811077  1
  S  S3  1  0.38521086  0.18861782  0.37188923  1
  S  S4  1  0.95169924  0.36400314  0.75102870  1
  S  S5  1  0.04830076  0.63599686  0.24897130  1
  S  S6  1  0.90300731  0.50622576  0.18831685  1
  S  S7  1  0.09699269  0.49377424  0.81168315  1
  S  S8  1  0.61040956  0.57802952  0.64580211  1
  S  S9  1  0.38959044  0.42197048  0.35419789  1
  S  S10  1  0.63734997  0.12953288  0.66787521  1
  S  S11  1  0.36265003  0.87046712  0.33212479  1
  S  S12  1  0.27298733  0.04369861  0.04613256  1
  S  S13  1  0.72701267  0.95630139  0.95386744  1
  S  S14  1  0.48519050  0.68538522  0.88007482  1
  S  S15  1  0.51480950  0.31461478  0.11992518  1
  S  S16  1  0.26939004  0.39592822  0.11485263  1
  S  S17  1  0.73060996  0.60407178  0.88514737  1
  S  S18  1  0.04717387  0.13516971  0.25336095  1
  S  S19  1  0.95282613  0.86483029  0.74663905  1
  S  S20  1  0.41944833  0.06848529  0.74539570  1
  S  S21  1  0.58055167  0.93151471  0.25460430  1
  Ta  Ta22  1  0.66640807  0.88771181  0.80832224  1
  Ta  Ta23  1  0.33359193  0.11228819  0.19167776  1
  Ta  Ta24  1  0.87403501  0.64129956  0.69344175  1
  Ta  Ta25  1  0.12596499  0.35870044  0.30655825  1
  Tl  Tl26  1  0.76907561  0.57782189  0.41488778  1
  Tl  Tl27  1  0.23092439  0.42217811  0.58511222  1
  Tl  Tl28  1  0.50160836  0.73904953  0.10911055  1
  Tl  Tl29  1  0.49839164  0.26095047  0.89088945  1
  Tl  Tl30  1  0.78751878  0.03407030  0.42465142  1
  Tl  Tl31  1  0.21248122  0.96592970  0.57534858  1
  Tl  Tl32  1  0.95362893  0.24066198  0.02389978  1
  Tl  Tl33  1  0.04637107  0.75933802  0.97610022  1
