# generated using pymatgen
data_RbCuSe4
_symmetry_space_group_name_H-M   'P 1'
_cell_length_a   5.57063837
_cell_length_b   9.02939355
_cell_length_c   13.81854532
_cell_angle_alpha   90.00000000
_cell_angle_beta   90.00000000
_cell_angle_gamma   90.00000000
_symmetry_Int_Tables_number   1
_chemical_formula_structural   RbCuSe4
_chemical_formula_sum   'Rb4 Cu4 Se16'
_cell_volume   695.06572918
_cell_formula_units_Z   4
loop_
 _symmetry_equiv_pos_site_id
 _symmetry_equiv_pos_as_xyz
  1  'x, y, z'
loop_
 _atom_site_type_symbol
 _atom_site_label
 _atom_site_symmetry_multiplicity
 _atom_site_fract_x
 _atom_site_fract_y
 _atom_site_fract_z
 _atom_site_occupancy
  Cu  Cu0  1  0.96735392  0.86307977  0.56410832  1
  Cu  Cu1  1  0.53264608  0.13692023  0.06410832  1
  Cu  Cu2  1  0.03264608  0.36307977  0.93589168  1
  Cu  Cu3  1  0.46735392  0.63692023  0.43589168  1
  Se  Se4  1  0.65968959  0.88342634  0.09634741  1
  Se  Se5  1  0.84031041  0.11657366  0.59634741  1
  Se  Se6  1  0.34031041  0.38342634  0.40365259  1
  Se  Se7  1  0.15968959  0.61657366  0.90365259  1
  Se  Se8  1  0.63555917  0.69711610  0.59527230  1
  Se  Se9  1  0.13555917  0.80288390  0.40472770  1
  Se  Se10  1  0.36444083  0.19711610  0.90472770  1
  Se  Se11  1  0.86444083  0.30288390  0.09527230  1
  Se  Se12  1  0.34002152  0.86691072  0.66169455  1
  Se  Se13  1  0.84002152  0.63308928  0.33830545  1
  Se  Se14  1  0.65997848  0.36691072  0.83830545  1
  Se  Se15  1  0.15997848  0.13308928  0.16169455  1
  Se  Se16  1  0.41822501  0.08783209  0.56517475  1
  Se  Se17  1  0.91822501  0.41216791  0.43482525  1
  Se  Se18  1  0.58177499  0.58783209  0.93482525  1
  Se  Se19  1  0.08177499  0.91216791  0.06517475  1
  Rb  Rb20  1  0.68757145  0.06010128  0.33360216  1
  Rb  Rb21  1  0.18757145  0.43989872  0.66639784  1
  Rb  Rb22  1  0.31242855  0.56010128  0.16639784  1
  Rb  Rb23  1  0.81242855  0.93989872  0.83360216  1
