# generated using pymatgen
data_LiNiPO4
_symmetry_space_group_name_H-M   'P 1'
_cell_length_a   4.83951822
_cell_length_b   7.98340179
_cell_length_c   16.71133691
_cell_angle_alpha   90.00000000
_cell_angle_beta   90.00000000
_cell_angle_gamma   90.00000000
_symmetry_Int_Tables_number   1
_chemical_formula_structural   LiNiPO4
_chemical_formula_sum   'Li8 Ni8 P8 O32'
_cell_volume   645.65617841
_cell_formula_units_Z   8
loop_
 _symmetry_equiv_pos_site_id
 _symmetry_equiv_pos_as_xyz
  1  'x, y, z'
loop_
 _atom_site_type_symbol
 _atom_site_label
 _atom_site_symmetry_multiplicity
 _atom_site_fract_x
 _atom_site_fract_y
 _atom_site_fract_z
 _atom_site_occupancy
  Li  Li0  1  0.24789490  0.53614113  0.05578773  1
  Li  Li1  1  0.24789490  0.03614113  0.44421227  1
  Li  Li2  1  0.27116857  0.37706695  0.36420509  1
  Li  Li3  1  0.27116857  0.87706695  0.13579491  1
  Li  Li4  1  0.74789490  0.96385887  0.55578773  1
  Li  Li5  1  0.74789490  0.46385887  0.94421227  1
  Li  Li6  1  0.77116857  0.12293305  0.86420509  1
  Li  Li7  1  0.77116857  0.62293305  0.63579491  1
  Ni  Ni8  1  0.27590941  0.35392915  0.55210601  1
  Ni  Ni9  1  0.27590941  0.85392915  0.94789399  1
  Ni  Ni10  1  0.42386082  0.91924147  0.71930982  1
  Ni  Ni11  1  0.42386082  0.41924147  0.78069018  1
  Ni  Ni12  1  0.77590941  0.14607085  0.05210601  1
  Ni  Ni13  1  0.77590941  0.64607085  0.44789399  1
  Ni  Ni14  1  0.92386082  0.08075853  0.28069018  1
  Ni  Ni15  1  0.92386082  0.58075853  0.21930982  1
  P  P16  1  0.23823028  0.25209828  0.17306959  1
  P  P17  1  0.23823028  0.75209828  0.32693041  1
  P  P18  1  0.24037075  0.24720180  0.93812755  1
  P  P19  1  0.24037075  0.74720180  0.56187245  1
  P  P20  1  0.73823028  0.74790172  0.82693041  1
  P  P21  1  0.73823028  0.24790172  0.67306959  1
  P  P22  1  0.74037075  0.25279820  0.43812755  1
  P  P23  1  0.74037075  0.75279820  0.06187245  1
  O  O24  1  0.03106496  0.26244642  0.64122436  1
  O  O25  1  0.03106496  0.76244642  0.85877564  1
  O  O26  1  0.05535777  0.76149754  0.04369938  1
  O  O27  1  0.05535777  0.26149754  0.45630062  1
  O  O28  1  0.08974469  0.88120804  0.51368406  1
  O  O29  1  0.08974469  0.38120804  0.98631594  1
  O  O30  1  0.20232492  0.27615908  0.84757873  1
  O  O31  1  0.20232492  0.77615908  0.65242127  1
  O  O32  1  0.05594233  0.09726053  0.14493873  1
  O  O33  1  0.05594233  0.59726053  0.35506127  1
  O  O34  1  0.22090838  0.74301541  0.23437057  1
  O  O35  1  0.22090838  0.24301541  0.26562943  1
  O  O36  1  0.10306923  0.42059705  0.14854688  1
  O  O37  1  0.10306923  0.92059705  0.35145312  1
  O  O38  1  0.08624198  0.57932220  0.54151396  1
  O  O39  1  0.08624198  0.07932220  0.95848604  1
  O  O40  1  0.53106496  0.23755358  0.14122436  1
  O  O41  1  0.53106496  0.73755358  0.35877564  1
  O  O42  1  0.55535777  0.23850246  0.95630062  1
  O  O43  1  0.55535777  0.73850246  0.54369938  1
  O  O44  1  0.58974469  0.11879196  0.48631594  1
  O  O45  1  0.58974469  0.61879196  0.01368406  1
  O  O46  1  0.70232492  0.22384092  0.34757873  1
  O  O47  1  0.70232492  0.72384092  0.15242127  1
  O  O48  1  0.55594233  0.90273947  0.85506127  1
  O  O49  1  0.55594233  0.40273947  0.64493873  1
  O  O50  1  0.72090838  0.75698459  0.73437057  1
  O  O51  1  0.72090838  0.25698459  0.76562943  1
  O  O52  1  0.60306923  0.57940295  0.85145312  1
  O  O53  1  0.60306923  0.07940295  0.64854688  1
  O  O54  1  0.58624198  0.42067780  0.45848604  1
  O  O55  1  0.58624198  0.92067780  0.04151396  1
