# generated using pymatgen
data_HfTe3O8
_symmetry_space_group_name_H-M   'P 1'
_cell_length_a   9.97692693
_cell_length_b   9.97692693
_cell_length_c   9.97692694
_cell_angle_alpha   109.47122063
_cell_angle_beta   109.47122063
_cell_angle_gamma   109.47122064
_symmetry_Int_Tables_number   1
_chemical_formula_structural   HfTe3O8
_chemical_formula_sum   'Hf4 Te12 O32'
_cell_volume   764.48414803
_cell_formula_units_Z   4
loop_
 _symmetry_equiv_pos_site_id
 _symmetry_equiv_pos_as_xyz
  1  'x, y, z'
loop_
 _atom_site_type_symbol
 _atom_site_label
 _atom_site_symmetry_multiplicity
 _atom_site_fract_x
 _atom_site_fract_y
 _atom_site_fract_z
 _atom_site_occupancy
  O  O0  1  0.83374959  0.50000000  0.00000000  1
  O  O1  1  0.50000000  0.00000000  0.83374959  1
  O  O2  1  0.00000000  0.83374959  0.50000000  1
  O  O3  1  0.66625041  0.66625041  0.66625041  1
  O  O4  1  0.16625041  0.50000000  0.00000000  1
  O  O5  1  0.50000000  0.00000000  0.16625041  1
  O  O6  1  0.00000000  0.16625041  0.50000000  1
  O  O7  1  0.33374959  0.33374959  0.33374959  1
  O  O8  1  0.04452980  0.46848232  0.70308059  1
  O  O9  1  0.26540173  0.34144922  0.79691941  1
  O  O10  1  0.23459827  0.03151768  0.07604749  1
  O  O11  1  0.15855078  0.42395251  0.45547020  1
  O  O12  1  0.42395251  0.45547020  0.15855078  1
  O  O13  1  0.70308059  0.04452980  0.46848232  1
  O  O14  1  0.34144922  0.79691941  0.26540173  1
  O  O15  1  0.07604749  0.23459827  0.03151768  1
  O  O16  1  0.54452980  0.84144922  0.57604749  1
  O  O17  1  0.96848232  0.92395251  0.76540173  1
  O  O18  1  0.20308059  0.73459827  0.65855078  1
  O  O19  1  0.53151768  0.29691941  0.95547020  1
  O  O20  1  0.92395251  0.76540173  0.96848232  1
  O  O21  1  0.65855078  0.20308059  0.73459827  1
  O  O22  1  0.29691941  0.95547020  0.53151768  1
  O  O23  1  0.57604749  0.54452980  0.84144922  1
  O  O24  1  0.84144922  0.57604749  0.54452980  1
  O  O25  1  0.76540173  0.96848232  0.92395251  1
  O  O26  1  0.73459827  0.65855078  0.20308059  1
  O  O27  1  0.95547020  0.53151768  0.29691941  1
  O  O28  1  0.45547020  0.15855078  0.42395251  1
  O  O29  1  0.03151768  0.07604749  0.23459827  1
  O  O30  1  0.79691941  0.26540173  0.34144922  1
  O  O31  1  0.46848232  0.70308059  0.04452980  1
  Te  Te32  1  0.25000000  0.94911806  0.69911806  1
  Te  Te33  1  0.80088194  0.75000000  0.55088194  1
  Te  Te34  1  0.55088194  0.80088194  0.75000000  1
  Te  Te35  1  0.69911806  0.25000000  0.94911806  1
  Te  Te36  1  0.94911806  0.69911806  0.25000000  1
  Te  Te37  1  0.75000000  0.55088194  0.80088194  1
  Te  Te38  1  0.75000000  0.05088194  0.30088194  1
  Te  Te39  1  0.19911806  0.25000000  0.44911806  1
  Te  Te40  1  0.44911806  0.19911806  0.25000000  1
  Te  Te41  1  0.30088194  0.75000000  0.05088194  1
  Te  Te42  1  0.05088194  0.30088194  0.75000000  1
  Te  Te43  1  0.25000000  0.44911806  0.19911806  1
  Hf  Hf44  1  0.50000000  0.50000000  0.00000000  1
  Hf  Hf45  1  0.50000000  0.00000000  0.50000000  1
  Hf  Hf46  1  0.00000000  0.50000000  0.50000000  1
  Hf  Hf47  1  0.00000000  0.00000000  0.00000000  1
