# generated using pymatgen
data_ZnSe2O5
_symmetry_space_group_name_H-M   'P 1'
_cell_length_a   6.18394998
_cell_length_b   6.91977231
_cell_length_c   10.61152635
_cell_angle_alpha   90.00000000
_cell_angle_beta   90.00000000
_cell_angle_gamma   90.00000000
_symmetry_Int_Tables_number   1
_chemical_formula_structural   ZnSe2O5
_chemical_formula_sum   'Zn4 Se8 O20'
_cell_volume   454.08340399
_cell_formula_units_Z   4
loop_
 _symmetry_equiv_pos_site_id
 _symmetry_equiv_pos_as_xyz
  1  'x, y, z'
loop_
 _atom_site_type_symbol
 _atom_site_label
 _atom_site_symmetry_multiplicity
 _atom_site_fract_x
 _atom_site_fract_y
 _atom_site_fract_z
 _atom_site_occupancy
  O  O0  1  0.75000000  0.00000000  0.56741023  1
  O  O1  1  0.25000000  0.50000000  0.93258977  1
  O  O2  1  0.25000000  0.00000000  0.43258977  1
  O  O3  1  0.75000000  0.50000000  0.06741023  1
  O  O4  1  0.16522219  0.30086115  0.71059097  1
  O  O5  1  0.66522219  0.19913885  0.78940903  1
  O  O6  1  0.83477781  0.80086115  0.78940903  1
  O  O7  1  0.33477781  0.69913885  0.71059097  1
  O  O8  1  0.83477781  0.69913885  0.28940903  1
  O  O9  1  0.33477781  0.80086115  0.21059097  1
  O  O10  1  0.16522219  0.19913885  0.21059097  1
  O  O11  1  0.66522219  0.30086115  0.28940903  1
  O  O12  1  0.04657109  0.34497310  0.43361121  1
  O  O13  1  0.54657109  0.15502690  0.06638879  1
  O  O14  1  0.95342891  0.84497310  0.06638879  1
  O  O15  1  0.45342891  0.65502690  0.43361121  1
  O  O16  1  0.95342891  0.65502690  0.56638879  1
  O  O17  1  0.45342891  0.84497310  0.93361121  1
  O  O18  1  0.04657109  0.15502690  0.93361121  1
  O  O19  1  0.54657109  0.34497310  0.56638879  1
  Zn  Zn20  1  0.75000000  0.00000000  0.93876664  1
  Zn  Zn21  1  0.25000000  0.50000000  0.56123336  1
  Zn  Zn22  1  0.25000000  0.00000000  0.06123336  1
  Zn  Zn23  1  0.75000000  0.50000000  0.43876664  1
  Se  Se24  1  0.03460983  0.36445123  0.84511557  1
  Se  Se25  1  0.53460983  0.13554877  0.65488443  1
  Se  Se26  1  0.96539017  0.86445123  0.65488443  1
  Se  Se27  1  0.46539017  0.63554877  0.84511557  1
  Se  Se28  1  0.96539017  0.63554877  0.15488443  1
  Se  Se29  1  0.46539017  0.86445123  0.34511557  1
  Se  Se30  1  0.03460983  0.13554877  0.34511557  1
  Se  Se31  1  0.53460983  0.36445123  0.15488443  1
