# generated using pymatgen
data_Sr3(GeP2)2
_symmetry_space_group_name_H-M   'P 1'
_cell_length_a   7.31810549
_cell_length_b   7.50364721
_cell_length_c   18.27841510
_cell_angle_alpha   90.00000000
_cell_angle_beta   90.00000000
_cell_angle_gamma   112.04539042
_symmetry_Int_Tables_number   1
_chemical_formula_structural   Sr3(GeP2)2
_chemical_formula_sum   'Sr12 Ge8 P16'
_cell_volume   930.32845267
_cell_formula_units_Z   4
loop_
 _symmetry_equiv_pos_site_id
 _symmetry_equiv_pos_as_xyz
  1  'x, y, z'
loop_
 _atom_site_type_symbol
 _atom_site_label
 _atom_site_symmetry_multiplicity
 _atom_site_fract_x
 _atom_site_fract_y
 _atom_site_fract_z
 _atom_site_occupancy
  P  P0  1  0.73840556  0.49114533  0.56819508  1
  P  P1  1  0.76159444  0.50885467  0.06819508  1
  P  P2  1  0.26159444  0.50885467  0.43180492  1
  P  P3  1  0.23840556  0.49114533  0.93180492  1
  P  P4  1  0.25703405  0.00991706  0.56055524  1
  P  P5  1  0.24296595  0.99008294  0.06055524  1
  P  P6  1  0.74296595  0.99008294  0.43944476  1
  P  P7  1  0.75703405  0.00991706  0.93944476  1
  P  P8  1  0.21800128  0.04706894  0.81503656  1
  P  P9  1  0.28199872  0.95293106  0.31503656  1
  P  P10  1  0.78199872  0.95293106  0.18496344  1
  P  P11  1  0.71800128  0.04706894  0.68496344  1
  P  P12  1  0.28189772  0.50272905  0.20040557  1
  P  P13  1  0.78189772  0.50272905  0.29959443  1
  P  P14  1  0.71810228  0.49727095  0.79959443  1
  P  P15  1  0.21810228  0.49727095  0.70040557  1
  Ge  Ge16  1  0.47331431  0.78770219  0.37269581  1
  Ge  Ge17  1  0.02668569  0.21229781  0.87269581  1
  Ge  Ge18  1  0.52668569  0.21229781  0.62730419  1
  Ge  Ge19  1  0.97331431  0.78770219  0.12730419  1
  Ge  Ge20  1  0.59156464  0.68562896  0.25848205  1
  Ge  Ge21  1  0.09156464  0.68562896  0.24151795  1
  Ge  Ge22  1  0.40843536  0.31437104  0.74151795  1
  Ge  Ge23  1  0.90843536  0.31437104  0.75848205  1
  Sr  Sr24  1  0.98884000  0.78376610  0.68444057  1
  Sr  Sr25  1  0.51116000  0.21623390  0.18444057  1
  Sr  Sr26  1  0.01116000  0.21623390  0.31555943  1
  Sr  Sr27  1  0.48884000  0.78376610  0.81555943  1
  Sr  Sr28  1  0.00453019  0.26071603  0.55862143  1
  Sr  Sr29  1  0.49546981  0.73928397  0.05862143  1
  Sr  Sr30  1  0.99546981  0.73928397  0.44137857  1
  Sr  Sr31  1  0.50453019  0.26071603  0.94137857  1
  Sr  Sr32  1  0.48859242  0.74367806  0.56340239  1
  Sr  Sr33  1  0.01140758  0.25632194  0.06340239  1
  Sr  Sr34  1  0.51140758  0.25632194  0.43659761  1
  Sr  Sr35  1  0.98859242  0.74367806  0.93659761  1
