# generated using pymatgen
data_KAlTe2
_symmetry_space_group_name_H-M   'P 1'
_cell_length_a   8.46451841
_cell_length_b   8.46451840
_cell_length_c   16.82087400
_cell_angle_alpha   97.23695834
_cell_angle_beta   97.23695835
_cell_angle_gamma   89.95956916
_symmetry_Int_Tables_number   1
_chemical_formula_structural   KAlTe2
_chemical_formula_sum   'K8 Al8 Te16'
_cell_volume   1185.91705037
_cell_formula_units_Z   8
loop_
 _symmetry_equiv_pos_site_id
 _symmetry_equiv_pos_as_xyz
  1  'x, y, z'
loop_
 _atom_site_type_symbol
 _atom_site_label
 _atom_site_symmetry_multiplicity
 _atom_site_fract_x
 _atom_site_fract_y
 _atom_site_fract_z
 _atom_site_occupancy
  Al  Al0  1  0.70981887  0.08782209  0.83811617  1
  Al  Al1  1  0.29018113  0.91217791  0.16188383  1
  Al  Al2  1  0.08782209  0.70981887  0.33811617  1
  Al  Al3  1  0.41852545  0.29060189  0.66260361  1
  Al  Al4  1  0.70939811  0.58147455  0.83739639  1
  Al  Al5  1  0.58147455  0.70939811  0.33739639  1
  Al  Al6  1  0.29060189  0.41852545  0.16260361  1
  Al  Al7  1  0.91217791  0.29018113  0.66188383  1
  K  K8  1  0.15097525  0.77908463  0.60898866  1
  K  K9  1  0.77908463  0.15097525  0.10898866  1
  K  K10  1  0.84902475  0.22091537  0.39101134  1
  K  K11  1  0.65416019  0.77927978  0.61768485  1
  K  K12  1  0.22072022  0.34583981  0.88231515  1
  K  K13  1  0.34583981  0.22072022  0.38231515  1
  K  K14  1  0.22091537  0.84902475  0.89101134  1
  K  K15  1  0.77927978  0.65416019  0.11768485  1
  Te  Te16  1  0.26510227  0.64011784  0.06406715  1
  Te  Te17  1  0.35988216  0.73489773  0.43593285  1
  Te  Te18  1  0.73489773  0.35988216  0.93593285  1
  Te  Te19  1  0.64011784  0.26510227  0.56406715  1
  Te  Te20  1  0.05349062  0.42833881  0.25052922  1
  Te  Te21  1  0.57166119  0.94650938  0.24947078  1
  Te  Te22  1  0.94650938  0.57166119  0.74947078  1
  Te  Te23  1  0.42833881  0.05349062  0.75052922  1
  Te  Te24  1  0.85775220  0.73431940  0.43301940  1
  Te  Te25  1  0.26568060  0.14224780  0.06698060  1
  Te  Te26  1  0.14224780  0.26568060  0.56698060  1
  Te  Te27  1  0.73431940  0.85775220  0.93301940  1
  Te  Te28  1  0.05324197  0.94675803  0.25000000  1
  Te  Te29  1  0.94675803  0.05324197  0.75000000  1
  Te  Te30  1  0.57233893  0.42766107  0.25000000  1
  Te  Te31  1  0.42766107  0.57233893  0.75000000  1
