# generated using pymatgen
data_Yb(Al4Co)2
_symmetry_space_group_name_H-M   'P 1'
_cell_length_a   3.96464484
_cell_length_b   12.42794527
_cell_length_c   14.41907967
_cell_angle_alpha   90.00000000
_cell_angle_beta   90.00000000
_cell_angle_gamma   90.00000000
_symmetry_Int_Tables_number   1
_chemical_formula_structural   Yb(Al4Co)2
_chemical_formula_sum   'Yb4 Al32 Co8'
_cell_volume   710.46250377
_cell_formula_units_Z   4
loop_
 _symmetry_equiv_pos_site_id
 _symmetry_equiv_pos_as_xyz
  1  'x, y, z'
loop_
 _atom_site_type_symbol
 _atom_site_label
 _atom_site_symmetry_multiplicity
 _atom_site_fract_x
 _atom_site_fract_y
 _atom_site_fract_z
 _atom_site_occupancy
  Al  Al0  1  0.50000000  0.02455781  0.13272990  1
  Al  Al1  1  0.50000000  0.97544219  0.86727010  1
  Al  Al2  1  0.50000000  0.52455781  0.36727010  1
  Al  Al3  1  0.50000000  0.47544219  0.63272990  1
  Al  Al4  1  0.50000000  0.16810112  0.99227473  1
  Al  Al5  1  0.50000000  0.83189888  0.00772527  1
  Al  Al6  1  0.50000000  0.66810112  0.50772527  1
  Al  Al7  1  0.50000000  0.33189888  0.49227473  1
  Al  Al8  1  0.50000000  0.16077757  0.38000704  1
  Al  Al9  1  0.50000000  0.83922243  0.61999296  1
  Al  Al10  1  0.50000000  0.66077757  0.11999296  1
  Al  Al11  1  0.50000000  0.33922243  0.88000704  1
  Al  Al12  1  0.50000000  0.23571151  0.17411122  1
  Al  Al13  1  0.50000000  0.76428849  0.82588878  1
  Al  Al14  1  0.50000000  0.73571151  0.32588878  1
  Al  Al15  1  0.50000000  0.26428849  0.67411122  1
  Al  Al16  1  0.50000000  0.45148658  0.18002121  1
  Al  Al17  1  0.50000000  0.54851342  0.81997879  1
  Al  Al18  1  0.50000000  0.95148658  0.31997879  1
  Al  Al19  1  0.50000000  0.04851342  0.68002121  1
  Al  Al20  1  0.00000000  0.00000000  0.00000000  1
  Al  Al21  1  0.50000000  0.50000000  0.00000000  1
  Al  Al22  1  0.00000000  0.50000000  0.50000000  1
  Al  Al23  1  0.50000000  0.00000000  0.50000000  1
  Al  Al24  1  0.00000000  0.09589304  0.25418224  1
  Al  Al25  1  0.00000000  0.90410696  0.74581776  1
  Al  Al26  1  0.00000000  0.59589304  0.24581776  1
  Al  Al27  1  0.00000000  0.40410696  0.75418224  1
  Al  Al28  1  0.00000000  0.16168520  0.54504550  1
  Al  Al29  1  0.00000000  0.83831480  0.45495450  1
  Al  Al30  1  0.00000000  0.66168520  0.95495450  1
  Al  Al31  1  0.00000000  0.33831480  0.04504550  1
  Co  Co32  1  0.00000000  0.53420865  0.09296495  1
  Co  Co33  1  0.00000000  0.03420865  0.40703505  1
  Co  Co34  1  0.00000000  0.96579135  0.59296495  1
  Co  Co35  1  0.00000000  0.46579135  0.90703505  1
  Co  Co36  1  0.00000000  0.35024181  0.59803960  1
  Co  Co37  1  0.00000000  0.64975819  0.40196040  1
  Co  Co38  1  0.00000000  0.85024181  0.90196040  1
  Co  Co39  1  0.00000000  0.14975819  0.09803960  1
  Yb  Yb40  1  0.00000000  0.15914345  0.81876898  1
  Yb  Yb41  1  0.00000000  0.84085655  0.18123102  1
  Yb  Yb42  1  0.00000000  0.65914345  0.68123102  1
  Yb  Yb43  1  0.00000000  0.34085655  0.31876898  1
