# generated using pymatgen
data_Co2Ni3Sb(PO4)6
_symmetry_space_group_name_H-M   'P 1'
_cell_length_a   8.47085408
_cell_length_b   8.66509906
_cell_length_c   8.66509849
_cell_angle_alpha   59.99999812
_cell_angle_beta   59.23849942
_cell_angle_gamma   59.23849990
_symmetry_Int_Tables_number   1
_chemical_formula_structural   Co2Ni3Sb(PO4)6
_chemical_formula_sum   'Co2 Ni3 Sb1 P6 O24'
_cell_volume   444.49141401
_cell_formula_units_Z   1
loop_
 _symmetry_equiv_pos_site_id
 _symmetry_equiv_pos_as_xyz
  1  'x, y, z'
loop_
 _atom_site_type_symbol
 _atom_site_label
 _atom_site_symmetry_multiplicity
 _atom_site_fract_x
 _atom_site_fract_y
 _atom_site_fract_z
 _atom_site_occupancy
  Co  Co0  1  0.02856725  0.99047725  0.99047725  1
  Co  Co1  1  0.49861040  0.50046353  0.50046353  1
  Ni  Ni2  1  0.07019387  0.64326904  0.64326904  1
  Ni  Ni3  1  0.43503438  0.85498854  0.85498854  1
  Ni  Ni4  1  0.92353352  0.35882216  0.35882216  1
  Sb  Sb5  1  0.57416506  0.14194531  0.14194531  1
  P  P6  1  0.24435552  0.25516337  0.54725333  1
  P  P7  1  0.24435552  0.95322779  0.25516337  1
  P  P8  1  0.24435552  0.54725333  0.95322779  1
  P  P9  1  0.74733246  0.45987718  0.04816560  1
  P  P10  1  0.74733246  0.04816560  0.74462376  1
  P  P11  1  0.74733246  0.74462376  0.45987718  1
  O  O12  1  0.06663344  0.10819301  0.32084468  1
  O  O13  1  0.06663344  0.50432887  0.10819301  1
  O  O14  1  0.06663344  0.32084468  0.50432887  1
  O  O15  1  0.22189559  0.09430168  0.74496417  1
  O  O16  1  0.43875077  0.18105615  0.38939366  1
  O  O17  1  0.28529465  0.40499793  0.55808172  1
  O  O18  1  0.22189559  0.93883756  0.09430168  1
  O  O19  1  0.28529465  0.75162470  0.40499793  1
  O  O20  1  0.56057084  0.60846513  0.01325029  1
  O  O21  1  0.28529465  0.55808172  0.75162470  1
  O  O22  1  0.77624026  0.25121966  0.06319448  1
  O  O23  1  0.56057084  0.01325029  0.81771274  1
  O  O24  1  0.43875077  0.99079943  0.18105615  1
  O  O25  1  0.22189559  0.74496417  0.93883756  1
  O  O26  1  0.71477234  0.43785255  0.25190113  1
  O  O27  1  0.43875077  0.38939366  0.99079943  1
  O  O28  1  0.71477234  0.25190113  0.59547498  1
  O  O29  1  0.77624026  0.06319448  0.90934559  1
  O  O30  1  0.71477234  0.59547498  0.43785255  1
  O  O31  1  0.56057084  0.81771274  0.60846513  1
  O  O32  1  0.77624026  0.90934559  0.25121966  1
  O  O33  1  0.93411897  0.68340664  0.48754703  1
  O  O34  1  0.93411897  0.48754703  0.89492736  1
  O  O35  1  0.93411897  0.89492736  0.68340664  1
