# generated using pymatgen
data_Dy3Ni7B2
_symmetry_space_group_name_H-M   'P 1'
_cell_length_a   5.07110942
_cell_length_b   5.07110942
_cell_length_c   14.28787269
_cell_angle_alpha   90.00000000
_cell_angle_beta   90.00000000
_cell_angle_gamma   120.00000002
_symmetry_Int_Tables_number   1
_chemical_formula_structural   Dy3Ni7B2
_chemical_formula_sum   'Dy6 Ni14 B4'
_cell_volume   318.20292406
_cell_formula_units_Z   2
loop_
 _symmetry_equiv_pos_site_id
 _symmetry_equiv_pos_as_xyz
  1  'x, y, z'
loop_
 _atom_site_type_symbol
 _atom_site_label
 _atom_site_symmetry_multiplicity
 _atom_site_fract_x
 _atom_site_fract_y
 _atom_site_fract_z
 _atom_site_occupancy
  B  B0  1  0.66666667  0.33333333  0.25000000  1
  B  B1  1  0.33333333  0.66666667  0.75000000  1
  B  B2  1  0.00000000  0.00000000  0.75000000  1
  B  B3  1  0.00000000  0.00000000  0.25000000  1
  Ni  Ni4  1  0.83443294  0.66886588  0.35082844  1
  Ni  Ni5  1  0.33113412  0.16556706  0.35082844  1
  Ni  Ni6  1  0.00000000  0.00000000  0.00000000  1
  Ni  Ni7  1  0.00000000  0.00000000  0.50000000  1
  Ni  Ni8  1  0.83443294  0.16556706  0.14917156  1
  Ni  Ni9  1  0.66886588  0.83443294  0.64917156  1
  Ni  Ni10  1  0.16556706  0.33113412  0.64917156  1
  Ni  Ni11  1  0.83443294  0.66886588  0.14917156  1
  Ni  Ni12  1  0.33113412  0.16556706  0.14917156  1
  Ni  Ni13  1  0.66886588  0.83443294  0.85082844  1
  Ni  Ni14  1  0.16556706  0.33113412  0.85082844  1
  Ni  Ni15  1  0.16556706  0.83443294  0.64917156  1
  Ni  Ni16  1  0.16556706  0.83443294  0.85082844  1
  Ni  Ni17  1  0.83443294  0.16556706  0.35082844  1
  Dy  Dy18  1  0.33333333  0.66666667  0.46806868  1
  Dy  Dy19  1  0.66666667  0.33333333  0.96806868  1
  Dy  Dy20  1  0.66666667  0.33333333  0.53193132  1
  Dy  Dy21  1  0.33333333  0.66666667  0.03193132  1
  Dy  Dy22  1  0.66666667  0.33333333  0.75000000  1
  Dy  Dy23  1  0.33333333  0.66666667  0.25000000  1
