# generated using pymatgen
data_CsYbP2O7
_symmetry_space_group_name_H-M   'P 1'
_cell_length_a   7.97043087
_cell_length_b   9.05657362
_cell_length_c   11.15399125
_cell_angle_alpha   90.00000000
_cell_angle_beta   90.00000000
_cell_angle_gamma   104.22428010
_symmetry_Int_Tables_number   1
_chemical_formula_structural   CsYbP2O7
_chemical_formula_sum   'Cs4 Yb4 P8 O28'
_cell_volume   780.46376006
_cell_formula_units_Z   4
loop_
 _symmetry_equiv_pos_site_id
 _symmetry_equiv_pos_as_xyz
  1  'x, y, z'
loop_
 _atom_site_type_symbol
 _atom_site_label
 _atom_site_symmetry_multiplicity
 _atom_site_fract_x
 _atom_site_fract_y
 _atom_site_fract_z
 _atom_site_occupancy
  O  O0  1  0.33017750  0.29049845  0.07191896  1
  O  O1  1  0.66982250  0.20950155  0.57191896  1
  O  O2  1  0.66982250  0.70950155  0.92808104  1
  O  O3  1  0.33017750  0.79049845  0.42808104  1
  O  O4  1  0.98366218  0.76993625  0.99322748  1
  O  O5  1  0.01633782  0.73006375  0.49322748  1
  O  O6  1  0.01633782  0.23006375  0.00677252  1
  O  O7  1  0.98366218  0.26993625  0.50677252  1
  O  O8  1  0.43467549  0.70506833  0.22824487  1
  O  O9  1  0.56532451  0.79493167  0.72824487  1
  O  O10  1  0.56532451  0.29493167  0.77175513  1
  O  O11  1  0.43467549  0.20506833  0.27175513  1
  O  O12  1  0.16247694  0.49247503  0.08191822  1
  O  O13  1  0.83752306  0.00752497  0.58191822  1
  O  O14  1  0.83752306  0.50752497  0.91808178  1
  O  O15  1  0.16247694  0.99247503  0.41808178  1
  O  O16  1  0.08861072  0.27059723  0.22790356  1
  O  O17  1  0.91138928  0.22940277  0.72790356  1
  O  O18  1  0.91138928  0.72940277  0.77209644  1
  O  O19  1  0.08861072  0.77059723  0.27209644  1
  O  O20  1  0.32445606  0.51150313  0.39306323  1
  O  O21  1  0.67554394  0.98849687  0.89306323  1
  O  O22  1  0.67554394  0.48849687  0.60693677  1
  O  O23  1  0.32445606  0.01150313  0.10693677  1
  O  O24  1  0.39152518  0.28935825  0.58206216  1
  O  O25  1  0.60847482  0.21064175  0.08206216  1
  O  O26  1  0.60847482  0.71064175  0.41793784  1
  O  O27  1  0.39152518  0.78935825  0.91793784  1
  P  P28  1  0.42767227  0.17285540  0.13699443  1
  P  P29  1  0.57232773  0.32714460  0.63699443  1
  P  P30  1  0.57232773  0.82714460  0.86300557  1
  P  P31  1  0.42767227  0.67285540  0.36300557  1
  P  P32  1  0.14090559  0.82215443  0.40057393  1
  P  P33  1  0.85909441  0.67784557  0.90057393  1
  P  P34  1  0.85909441  0.17784557  0.59942607  1
  P  P35  1  0.14090559  0.32215443  0.09942607  1
  Cs  Cs36  1  0.19617167  0.55383497  0.68450307  1
  Cs  Cs37  1  0.80382833  0.94616503  0.18450307  1
  Cs  Cs38  1  0.80382833  0.44616503  0.31549693  1
  Cs  Cs39  1  0.19617167  0.05383497  0.81549693  1
  Yb  Yb40  1  0.23331005  0.75093839  0.09313252  1
  Yb  Yb41  1  0.76668995  0.74906161  0.59313252  1
  Yb  Yb42  1  0.76668995  0.24906161  0.90686748  1
  Yb  Yb43  1  0.23331005  0.25093839  0.40686748  1
