# generated using pymatgen
data_K3NbS4
_symmetry_space_group_name_H-M   'P 1'
_cell_length_a   9.38187100
_cell_length_b   9.61876627
_cell_length_c   10.88931229
_cell_angle_alpha   90.00000000
_cell_angle_beta   90.00000000
_cell_angle_gamma   90.00000000
_symmetry_Int_Tables_number   1
_chemical_formula_structural   K3NbS4
_chemical_formula_sum   'K12 Nb4 S16'
_cell_volume   982.67358455
_cell_formula_units_Z   4
loop_
 _symmetry_equiv_pos_site_id
 _symmetry_equiv_pos_as_xyz
  1  'x, y, z'
loop_
 _atom_site_type_symbol
 _atom_site_label
 _atom_site_symmetry_multiplicity
 _atom_site_fract_x
 _atom_site_fract_y
 _atom_site_fract_z
 _atom_site_occupancy
  S  S0  1  0.66555152  0.55144497  0.07607196  1
  S  S1  1  0.16555152  0.94855503  0.42392804  1
  S  S2  1  0.83444848  0.05144497  0.92392804  1
  S  S3  1  0.33444848  0.44855503  0.57607196  1
  S  S4  1  0.33444848  0.44855503  0.92392804  1
  S  S5  1  0.83444848  0.05144497  0.57607196  1
  S  S6  1  0.16555152  0.94855503  0.07607196  1
  S  S7  1  0.66555152  0.55144497  0.42392804  1
  S  S8  1  0.18858702  0.74948186  0.75000000  1
  S  S9  1  0.68858702  0.75051814  0.75000000  1
  S  S10  1  0.31141298  0.24948186  0.25000000  1
  S  S11  1  0.81141298  0.25051814  0.25000000  1
  S  S12  1  0.99151717  0.41127788  0.75000000  1
  S  S13  1  0.00848283  0.58872212  0.25000000  1
  S  S14  1  0.50848283  0.91127788  0.25000000  1
  S  S15  1  0.49151717  0.08872212  0.75000000  1
  K  K16  1  0.06042685  0.28767658  0.04544941  1
  K  K17  1  0.63285193  0.42556982  0.75000000  1
  K  K18  1  0.36714807  0.57443018  0.25000000  1
  K  K19  1  0.86714807  0.92556982  0.25000000  1
  K  K20  1  0.93957315  0.71232342  0.95455059  1
  K  K21  1  0.43957315  0.78767658  0.54544941  1
  K  K22  1  0.56042685  0.21232342  0.04544941  1
  K  K23  1  0.06042685  0.28767658  0.45455059  1
  K  K24  1  0.93957315  0.71232342  0.54544941  1
  K  K25  1  0.56042685  0.21232342  0.45455059  1
  K  K26  1  0.43957315  0.78767658  0.95455059  1
  K  K27  1  0.13285193  0.07443018  0.75000000  1
  Nb  Nb28  1  0.21355767  0.51178897  0.75000000  1
  Nb  Nb29  1  0.71355767  0.98821103  0.75000000  1
  Nb  Nb30  1  0.28644233  0.01178897  0.25000000  1
  Nb  Nb31  1  0.78644233  0.48821103  0.25000000  1
