# generated using pymatgen
data_RbLiZn2O3
_symmetry_space_group_name_H-M   'P 1'
_cell_length_a   3.47434620
_cell_length_b   10.49877284
_cell_length_c   10.49877284
_cell_angle_alpha   90.00000000
_cell_angle_beta   90.00000000
_cell_angle_gamma   90.00000000
_symmetry_Int_Tables_number   1
_chemical_formula_structural   RbLiZn2O3
_chemical_formula_sum   'Rb4 Li4 Zn8 O12'
_cell_volume   382.95713863
_cell_formula_units_Z   4
loop_
 _symmetry_equiv_pos_site_id
 _symmetry_equiv_pos_as_xyz
  1  'x, y, z'
loop_
 _atom_site_type_symbol
 _atom_site_label
 _atom_site_symmetry_multiplicity
 _atom_site_fract_x
 _atom_site_fract_y
 _atom_site_fract_z
 _atom_site_occupancy
  Li  Li0  1  0.50000000  0.79837196  0.79837196  1
  Li  Li1  1  0.50000000  0.20162804  0.20162804  1
  Li  Li2  1  0.00000000  0.70162804  0.29837196  1
  Li  Li3  1  0.00000000  0.29837196  0.70162804  1
  O  O4  1  0.50000000  0.15530039  0.38614995  1
  O  O5  1  0.50000000  0.61385005  0.84469961  1
  O  O6  1  0.50000000  0.38614995  0.15530039  1
  O  O7  1  0.00000000  0.34469961  0.88614995  1
  O  O8  1  0.00000000  0.85837754  0.85837754  1
  O  O9  1  0.50000000  0.64162246  0.35837754  1
  O  O10  1  0.50000000  0.35837754  0.64162246  1
  O  O11  1  0.00000000  0.14162246  0.14162246  1
  O  O12  1  0.50000000  0.84469961  0.61385005  1
  O  O13  1  0.00000000  0.11385005  0.65530039  1
  O  O14  1  0.00000000  0.88614995  0.34469961  1
  O  O15  1  0.00000000  0.65530039  0.11385005  1
  Zn  Zn16  1  0.00000000  0.07310155  0.32834927  1
  Zn  Zn17  1  0.00000000  0.92689845  0.67165073  1
  Zn  Zn18  1  0.50000000  0.82834927  0.42689845  1
  Zn  Zn19  1  0.50000000  0.17165073  0.57310155  1
  Zn  Zn20  1  0.00000000  0.32834927  0.07310155  1
  Zn  Zn21  1  0.50000000  0.42689845  0.82834927  1
  Zn  Zn22  1  0.50000000  0.57310155  0.17165073  1
  Zn  Zn23  1  0.00000000  0.67165073  0.92689845  1
  Rb  Rb24  1  0.00000000  0.39028934  0.39028934  1
  Rb  Rb25  1  0.50000000  0.10971066  0.89028934  1
  Rb  Rb26  1  0.50000000  0.89028934  0.10971066  1
  Rb  Rb27  1  0.00000000  0.60971066  0.60971066  1
