# generated using pymatgen
data_Ba2Ga2S5
_symmetry_space_group_name_H-M   'P 1'
_cell_length_a   8.64498188
_cell_length_b   10.85845503
_cell_length_c   10.85845503
_cell_angle_alpha   87.74742598
_cell_angle_beta   79.01102216
_cell_angle_gamma   79.01102222
_symmetry_Int_Tables_number   1
_chemical_formula_structural   Ba2Ga2S5
_chemical_formula_sum   'Ba8 Ga8 S20'
_cell_volume   982.25379725
_cell_formula_units_Z   4
loop_
 _symmetry_equiv_pos_site_id
 _symmetry_equiv_pos_as_xyz
  1  'x, y, z'
loop_
 _atom_site_type_symbol
 _atom_site_label
 _atom_site_symmetry_multiplicity
 _atom_site_fract_x
 _atom_site_fract_y
 _atom_site_fract_z
 _atom_site_occupancy
  S  S0  1  0.25000000  0.03257508  0.96742492  1
  S  S1  1  0.75000000  0.96742492  0.03257508  1
  S  S2  1  0.76513072  0.61357989  0.03405009  1
  S  S3  1  0.73486928  0.96594991  0.38642011  1
  S  S4  1  0.23486928  0.38642011  0.96594991  1
  S  S5  1  0.26513072  0.03405009  0.61357989  1
  S  S6  1  0.46259456  0.47743705  0.24205322  1
  S  S7  1  0.03740544  0.75794678  0.52256295  1
  S  S8  1  0.53740544  0.52256295  0.75794678  1
  S  S9  1  0.96259456  0.24205322  0.47743705  1
  S  S10  1  0.08763581  0.74602964  0.83859823  1
  S  S11  1  0.41236419  0.16140177  0.25397036  1
  S  S12  1  0.91236419  0.25397036  0.16140177  1
  S  S13  1  0.58763581  0.83859823  0.74602964  1
  S  S14  1  0.44163521  0.81614551  0.26148128  1
  S  S15  1  0.05836479  0.73851872  0.18385449  1
  S  S16  1  0.75000000  0.60041033  0.39958967  1
  S  S17  1  0.25000000  0.39958967  0.60041033  1
  S  S18  1  0.94163521  0.26148128  0.81614551  1
  S  S19  1  0.55836479  0.18385449  0.73851872  1
  Ga  Ga20  1  0.61555332  0.62282047  0.23203286  1
  Ga  Ga21  1  0.88444668  0.76796714  0.37717953  1
  Ga  Ga22  1  0.38444668  0.37717953  0.76796714  1
  Ga  Ga23  1  0.11555332  0.23203286  0.62282047  1
  Ga  Ga24  1  0.58729770  0.97649041  0.22770325  1
  Ga  Ga25  1  0.91270230  0.77229675  0.02350959  1
  Ga  Ga26  1  0.41270230  0.02350959  0.77229675  1
  Ga  Ga27  1  0.08729770  0.22770325  0.97649041  1
  Ba  Ba28  1  0.61055838  0.27756259  0.01896886  1
  Ba  Ba29  1  0.88944162  0.98103114  0.72243741  1
  Ba  Ba30  1  0.38944162  0.72243741  0.98103114  1
  Ba  Ba31  1  0.11055838  0.01896886  0.27756259  1
  Ba  Ba32  1  0.60523992  0.26833838  0.43248808  1
  Ba  Ba33  1  0.89476008  0.56751192  0.73166162  1
  Ba  Ba34  1  0.39476008  0.73166162  0.56751192  1
  Ba  Ba35  1  0.10523992  0.43248808  0.26833838  1
