# generated using pymatgen
data_Ga7Te10
_symmetry_space_group_name_H-M   'P 1'
_cell_length_a   10.44823711
_cell_length_b   10.44823711
_cell_length_c   10.44823712
_cell_angle_alpha   89.70749424
_cell_angle_beta   89.70749419
_cell_angle_gamma   89.70749422
_symmetry_Int_Tables_number   1
_chemical_formula_structural   Ga7Te10
_chemical_formula_sum   'Ga14 Te20'
_cell_volume   1140.54424867
_cell_formula_units_Z   2
loop_
 _symmetry_equiv_pos_site_id
 _symmetry_equiv_pos_as_xyz
  1  'x, y, z'
loop_
 _atom_site_type_symbol
 _atom_site_label
 _atom_site_symmetry_multiplicity
 _atom_site_fract_x
 _atom_site_fract_y
 _atom_site_fract_z
 _atom_site_occupancy
  Ga  Ga0  1  0.56949637  0.56949637  0.56949637  1
  Ga  Ga1  1  0.43050363  0.43050363  0.43050363  1
  Ga  Ga2  1  0.16646008  0.34183054  0.74375634  1
  Ga  Ga3  1  0.74375634  0.16646008  0.34183054  1
  Ga  Ga4  1  0.34183054  0.74375634  0.16646008  1
  Ga  Ga5  1  0.65816946  0.83353992  0.25624366  1
  Ga  Ga6  1  0.25624366  0.65816946  0.83353992  1
  Ga  Ga7  1  0.83353992  0.25624366  0.65816946  1
  Ga  Ga8  1  0.88640735  0.57837476  0.84687121  1
  Ga  Ga9  1  0.84687121  0.88640735  0.57837476  1
  Ga  Ga10  1  0.57837476  0.84687121  0.88640735  1
  Ga  Ga11  1  0.42162524  0.11359265  0.15312879  1
  Ga  Ga12  1  0.15312879  0.42162524  0.11359265  1
  Ga  Ga13  1  0.11359265  0.15312879  0.42162524  1
  Te  Te14  1  0.83282216  0.83282216  0.83282216  1
  Te  Te15  1  0.16717784  0.16717784  0.16717784  1
  Te  Te16  1  0.82369733  0.00000000  0.17630267  1
  Te  Te17  1  0.17630267  0.82369733  0.00000000  1
  Te  Te18  1  0.00000000  0.17630267  0.82369733  1
  Te  Te19  1  0.91646931  0.50000000  0.08353069  1
  Te  Te20  1  0.08353069  0.91646931  0.50000000  1
  Te  Te21  1  0.50000000  0.08353069  0.91646931  1
  Te  Te22  1  0.68528916  0.43917318  0.76258933  1
  Te  Te23  1  0.76258933  0.68528916  0.43917318  1
  Te  Te24  1  0.43917318  0.76258933  0.68528916  1
  Te  Te25  1  0.56082682  0.31471084  0.23741067  1
  Te  Te26  1  0.23741067  0.56082682  0.31471084  1
  Te  Te27  1  0.31471084  0.23741067  0.56082682  1
  Te  Te28  1  0.07466391  0.57369123  0.67061740  1
  Te  Te29  1  0.67061740  0.07466391  0.57369123  1
  Te  Te30  1  0.57369123  0.67061740  0.07466391  1
  Te  Te31  1  0.42630877  0.92533609  0.32938260  1
  Te  Te32  1  0.32938260  0.42630877  0.92533609  1
  Te  Te33  1  0.92533609  0.32938260  0.42630877  1
