# generated using pymatgen
data_BaLa2BeO5
_symmetry_space_group_name_H-M   'P 1'
_cell_length_a   6.89573408
_cell_length_b   7.52232561
_cell_length_c   10.00082616
_cell_angle_alpha   90.78167520
_cell_angle_beta   90.00000000
_cell_angle_gamma   90.00000000
_symmetry_Int_Tables_number   1
_chemical_formula_structural   BaLa2BeO5
_chemical_formula_sum   'Ba4 La8 Be4 O20'
_cell_volume   518.71414792
_cell_formula_units_Z   4
loop_
 _symmetry_equiv_pos_site_id
 _symmetry_equiv_pos_as_xyz
  1  'x, y, z'
loop_
 _atom_site_type_symbol
 _atom_site_label
 _atom_site_symmetry_multiplicity
 _atom_site_fract_x
 _atom_site_fract_y
 _atom_site_fract_z
 _atom_site_occupancy
  Be  Be0  1  0.80662440  0.73968085  0.90323442  1
  Be  Be1  1  0.30662440  0.26031915  0.59676558  1
  Be  Be2  1  0.19337560  0.26031915  0.09676558  1
  Be  Be3  1  0.69337560  0.73968085  0.40323442  1
  O  O4  1  0.36809921  0.27657972  0.76566667  1
  O  O5  1  0.01337342  0.72186342  0.98958103  1
  O  O6  1  0.51337342  0.27813658  0.51041897  1
  O  O7  1  0.98662658  0.27813658  0.01041897  1
  O  O8  1  0.48662658  0.72186342  0.48958103  1
  O  O9  1  0.63190079  0.72342028  0.23433333  1
  O  O10  1  0.13190079  0.27657972  0.26566667  1
  O  O11  1  0.80645164  0.93037890  0.43753285  1
  O  O12  1  0.86809921  0.72342028  0.73433333  1
  O  O13  1  0.16420425  0.71675073  0.28632157  1
  O  O14  1  0.66420425  0.28324927  0.21367843  1
  O  O15  1  0.83579575  0.28324927  0.71367843  1
  O  O16  1  0.19354836  0.06962110  0.56246715  1
  O  O17  1  0.69354836  0.93037890  0.93753285  1
  O  O18  1  0.82064740  0.55997711  0.43450106  1
  O  O19  1  0.30645164  0.06962110  0.06246715  1
  O  O20  1  0.67935260  0.55997711  0.93450106  1
  O  O21  1  0.32064740  0.44002289  0.06549894  1
  O  O22  1  0.17935260  0.44002289  0.56549894  1
  O  O23  1  0.33579575  0.71675073  0.78632157  1
  Ba  Ba24  1  0.58203630  0.98088875  0.67246519  1
  Ba  Ba25  1  0.91796370  0.98088875  0.17246519  1
  Ba  Ba26  1  0.08203630  0.01911125  0.82753481  1
  Ba  Ba27  1  0.41796370  0.01911125  0.32753481  1
  La  La28  1  0.41202366  0.74484012  0.02036768  1
  La  La29  1  0.41770452  0.47824736  0.32386250  1
  La  La30  1  0.91770452  0.52175264  0.17613750  1
  La  La31  1  0.58229548  0.52175264  0.67613750  1
  La  La32  1  0.08229548  0.47824736  0.82386250  1
  La  La33  1  0.08797634  0.74484012  0.52036768  1
  La  La34  1  0.58797634  0.25515988  0.97963232  1
  La  La35  1  0.91202366  0.25515988  0.47963232  1
