# generated using pymatgen
data_KAg(NO3)2
_symmetry_space_group_name_H-M   'P 1'
_cell_length_a   5.03485426
_cell_length_b   8.44685557
_cell_length_c   14.45032572
_cell_angle_alpha   99.72399386
_cell_angle_beta   90.00000000
_cell_angle_gamma   90.00000000
_symmetry_Int_Tables_number   1
_chemical_formula_structural   KAg(NO3)2
_chemical_formula_sum   'K4 Ag4 N8 O24'
_cell_volume   605.72397938
_cell_formula_units_Z   4
loop_
 _symmetry_equiv_pos_site_id
 _symmetry_equiv_pos_as_xyz
  1  'x, y, z'
loop_
 _atom_site_type_symbol
 _atom_site_label
 _atom_site_symmetry_multiplicity
 _atom_site_fract_x
 _atom_site_fract_y
 _atom_site_fract_z
 _atom_site_occupancy
  N  N0  1  0.14201969  0.56218812  0.66451532  1
  N  N1  1  0.64201969  0.43781188  0.83548468  1
  N  N2  1  0.85798031  0.43781188  0.33548468  1
  N  N3  1  0.35798031  0.56218812  0.16451532  1
  N  N4  1  0.05383505  0.93803105  0.59997097  1
  N  N5  1  0.55383505  0.06196895  0.90002903  1
  N  N6  1  0.94616495  0.06196895  0.40002903  1
  N  N7  1  0.44616495  0.93803105  0.09997097  1
  O  O8  1  0.45826031  0.67628356  0.22220463  1
  O  O9  1  0.95826031  0.32371644  0.27779537  1
  O  O10  1  0.54173969  0.32371644  0.77779537  1
  O  O11  1  0.04173969  0.67628356  0.72220463  1
  O  O12  1  0.47363212  0.42984110  0.14151698  1
  O  O13  1  0.97363212  0.57015890  0.35848302  1
  O  O14  1  0.52636788  0.57015890  0.85848302  1
  O  O15  1  0.02636788  0.42984110  0.64151698  1
  O  O16  1  0.61173844  0.00966303  0.16140717  1
  O  O17  1  0.11173844  0.99033697  0.33859283  1
  O  O18  1  0.38826156  0.99033697  0.83859283  1
  O  O19  1  0.88826156  0.00966303  0.66140717  1
  O  O20  1  0.20451387  0.97973272  0.10483152  1
  O  O21  1  0.70451387  0.02026728  0.39516848  1
  O  O22  1  0.79548613  0.02026728  0.89516848  1
  O  O23  1  0.29548613  0.97973272  0.60483152  1
  O  O24  1  0.52707639  0.82724674  0.03721408  1
  O  O25  1  0.02707639  0.17275326  0.46278592  1
  O  O26  1  0.47292361  0.17275326  0.96278592  1
  O  O27  1  0.97292361  0.82724674  0.53721408  1
  O  O28  1  0.12778010  0.58209296  0.12884329  1
  O  O29  1  0.62778010  0.41790704  0.37115671  1
  O  O30  1  0.87221990  0.41790704  0.87115671  1
  O  O31  1  0.37221990  0.58209296  0.62884329  1
  K  K32  1  0.54795563  0.26398447  0.56790495  1
  K  K33  1  0.04795563  0.73601553  0.93209505  1
  K  K34  1  0.45204437  0.73601553  0.43209505  1
  K  K35  1  0.95204437  0.26398447  0.06790495  1
  Ag  Ag36  1  0.08580202  0.19250351  0.78548303  1
  Ag  Ag37  1  0.58580202  0.80749649  0.71451697  1
  Ag  Ag38  1  0.91419798  0.80749649  0.21451697  1
  Ag  Ag39  1  0.41419798  0.19250351  0.28548303  1
