# generated using pymatgen
data_K3AlTe3
_symmetry_space_group_name_H-M   'P 1'
_cell_length_a   8.76482079
_cell_length_b   9.11869621
_cell_length_c   14.25181248
_cell_angle_alpha   90.00000000
_cell_angle_beta   90.00000000
_cell_angle_gamma   102.01279800
_symmetry_Int_Tables_number   1
_chemical_formula_structural   K3AlTe3
_chemical_formula_sum   'K12 Al4 Te12'
_cell_volume   1114.11404912
_cell_formula_units_Z   4
loop_
 _symmetry_equiv_pos_site_id
 _symmetry_equiv_pos_as_xyz
  1  'x, y, z'
loop_
 _atom_site_type_symbol
 _atom_site_label
 _atom_site_symmetry_multiplicity
 _atom_site_fract_x
 _atom_site_fract_y
 _atom_site_fract_z
 _atom_site_occupancy
  Al  Al0  1  0.89574169  0.84141602  0.93394233  1
  Al  Al1  1  0.60425831  0.65858398  0.43394233  1
  Al  Al2  1  0.39574169  0.34141602  0.56605767  1
  Al  Al3  1  0.10425831  0.15858398  0.06605767  1
  K  K4  1  0.77915645  0.92718210  0.68873450  1
  K  K5  1  0.22084355  0.07281790  0.31126550  1
  K  K6  1  0.72084355  0.57281790  0.18873450  1
  K  K7  1  0.27967000  0.59683475  0.10546616  1
  K  K8  1  0.16408887  0.52629503  0.38713343  1
  K  K9  1  0.33591113  0.97370497  0.88713343  1
  K  K10  1  0.83591113  0.47370497  0.61286657  1
  K  K11  1  0.66408887  0.02629503  0.11286657  1
  K  K12  1  0.77967000  0.09683475  0.39453384  1
  K  K13  1  0.72033000  0.40316525  0.89453384  1
  K  K14  1  0.22033000  0.90316525  0.60546616  1
  K  K15  1  0.27915645  0.42718210  0.81126550  1
  Te  Te16  1  0.46145019  0.63985145  0.60129872  1
  Te  Te17  1  0.03854981  0.86014855  0.10129872  1
  Te  Te18  1  0.53854981  0.36014855  0.39870128  1
  Te  Te19  1  0.96145019  0.13985145  0.89870128  1
  Te  Te20  1  0.47547739  0.80307811  0.30664664  1
  Te  Te21  1  0.02452261  0.69692189  0.80664664  1
  Te  Te22  1  0.52452261  0.19692189  0.69335336  1
  Te  Te23  1  0.97547739  0.30307811  0.19335336  1
  Te  Te24  1  0.90375004  0.76506749  0.44675883  1
  Te  Te25  1  0.59624996  0.73493251  0.94675883  1
  Te  Te26  1  0.09624996  0.23493251  0.55324117  1
  Te  Te27  1  0.40375004  0.26506749  0.05324117  1
