# generated using pymatgen
data_Rb4GeO4
_symmetry_space_group_name_H-M   'P 1'
_cell_length_a   6.93862875
_cell_length_b   11.08660682
_cell_length_c   11.12859569
_cell_angle_alpha   111.80922313
_cell_angle_beta   90.00000000
_cell_angle_gamma   90.00000000
_symmetry_Int_Tables_number   1
_chemical_formula_structural   Rb4GeO4
_chemical_formula_sum   'Rb16 Ge4 O16'
_cell_volume   794.80386748
_cell_formula_units_Z   4
loop_
 _symmetry_equiv_pos_site_id
 _symmetry_equiv_pos_as_xyz
  1  'x, y, z'
loop_
 _atom_site_type_symbol
 _atom_site_label
 _atom_site_symmetry_multiplicity
 _atom_site_fract_x
 _atom_site_fract_y
 _atom_site_fract_z
 _atom_site_occupancy
  O  O0  1  0.99637935  0.15455812  0.27872564  1
  O  O1  1  0.49637935  0.34544188  0.72127436  1
  O  O2  1  0.00362065  0.84544188  0.72127436  1
  O  O3  1  0.50362065  0.65455812  0.27872564  1
  O  O4  1  0.26068496  0.53095190  0.41208597  1
  O  O5  1  0.76068496  0.96904810  0.58791403  1
  O  O6  1  0.73931504  0.46904810  0.58791403  1
  O  O7  1  0.23931504  0.03095190  0.41208597  1
  O  O8  1  0.97682194  0.86717367  0.20178203  1
  O  O9  1  0.47682194  0.63282633  0.79821797  1
  O  O10  1  0.02317806  0.13282633  0.79821797  1
  O  O11  1  0.52317806  0.36717367  0.20178203  1
  O  O12  1  0.32156850  0.98574880  0.14049245  1
  O  O13  1  0.82156850  0.51425120  0.85950755  1
  O  O14  1  0.67843150  0.01425120  0.85950755  1
  O  O15  1  0.17843150  0.48574880  0.14049245  1
  Ge  Ge16  1  0.13120377  0.00920640  0.25829454  1
  Ge  Ge17  1  0.63120377  0.49079360  0.74170546  1
  Ge  Ge18  1  0.86879623  0.99079360  0.74170546  1
  Ge  Ge19  1  0.36879623  0.50920640  0.25829454  1
  Rb  Rb20  1  0.31628669  0.70510167  0.07546150  1
  Rb  Rb21  1  0.81628669  0.79489833  0.92453850  1
  Rb  Rb22  1  0.68371331  0.29489833  0.92453850  1
  Rb  Rb23  1  0.18371331  0.20510167  0.07546150  1
  Rb  Rb24  1  0.09200165  0.80435777  0.43975909  1
  Rb  Rb25  1  0.59200165  0.69564223  0.56024091  1
  Rb  Rb26  1  0.90799835  0.19564223  0.56024091  1
  Rb  Rb27  1  0.40799835  0.30435777  0.43975909  1
  Rb  Rb28  1  0.83642453  0.60960386  0.13278051  1
  Rb  Rb29  1  0.33642453  0.89039614  0.86721949  1
  Rb  Rb30  1  0.16357547  0.39039614  0.86721949  1
  Rb  Rb31  1  0.66357547  0.10960386  0.13278051  1
  Rb  Rb32  1  0.11098912  0.58615758  0.65718865  1
  Rb  Rb33  1  0.61098912  0.91384242  0.34281135  1
  Rb  Rb34  1  0.88901088  0.41384242  0.34281135  1
  Rb  Rb35  1  0.38901088  0.08615758  0.65718865  1
