# generated using pymatgen
data_K3Na2SnAs3
_symmetry_space_group_name_H-M   'P 1'
_cell_length_a   6.86557234
_cell_length_b   10.88884391
_cell_length_c   15.61491138
_cell_angle_alpha   90.00000000
_cell_angle_beta   90.00000000
_cell_angle_gamma   108.37633991
_symmetry_Int_Tables_number   1
_chemical_formula_structural   K3Na2SnAs3
_chemical_formula_sum   'K12 Na8 Sn4 As12'
_cell_volume   1107.81471261
_cell_formula_units_Z   4
loop_
 _symmetry_equiv_pos_site_id
 _symmetry_equiv_pos_as_xyz
  1  'x, y, z'
loop_
 _atom_site_type_symbol
 _atom_site_label
 _atom_site_symmetry_multiplicity
 _atom_site_fract_x
 _atom_site_fract_y
 _atom_site_fract_z
 _atom_site_occupancy
  Na  Na0  1  0.91864010  0.83728020  0.00000000  1
  Na  Na1  1  0.41864010  0.83728020  0.50000000  1
  Na  Na2  1  0.08135990  0.16271980  0.00000000  1
  Na  Na3  1  0.24522730  0.49045460  0.00000000  1
  Na  Na4  1  0.25477270  0.50954540  0.50000000  1
  Na  Na5  1  0.75477270  0.50954540  0.00000000  1
  Na  Na6  1  0.74522730  0.49045460  0.50000000  1
  Na  Na7  1  0.58135990  0.16271980  0.50000000  1
  K  K8  1  0.93388324  0.33338569  0.17544487  1
  K  K9  1  0.25969796  0.00000000  0.67769994  1
  K  K10  1  0.24030204  0.00000000  0.17769994  1
  K  K11  1  0.74030204  0.00000000  0.32230006  1
  K  K12  1  0.10049756  0.66661431  0.32455513  1
  K  K13  1  0.56611676  0.66661431  0.67544487  1
  K  K14  1  0.39950244  0.33338569  0.82455513  1
  K  K15  1  0.06611676  0.66661431  0.82455513  1
  K  K16  1  0.89950244  0.33338569  0.67544487  1
  K  K17  1  0.43388324  0.33338569  0.32455513  1
  K  K18  1  0.60049756  0.66661431  0.17544487  1
  K  K19  1  0.75969796  0.00000000  0.82230006  1
  As  As20  1  0.38148672  0.31776253  0.60574623  1
  As  As21  1  0.56372419  0.68223747  0.89425377  1
  As  As22  1  0.11851328  0.68223747  0.10574623  1
  As  As23  1  0.93627581  0.31776253  0.39425377  1
  As  As24  1  0.61851328  0.68223747  0.39425377  1
  As  As25  1  0.43627581  0.31776253  0.10574623  1
  As  As26  1  0.88148672  0.31776253  0.89425377  1
  As  As27  1  0.06372419  0.68223747  0.60574623  1
  As  As28  1  0.20607815  0.00000000  0.40513613  1
  As  As29  1  0.70607815  0.00000000  0.09486387  1
  As  As30  1  0.29392185  0.00000000  0.90513613  1
  As  As31  1  0.79392185  0.00000000  0.59486387  1
  Sn  Sn32  1  0.91140269  0.82280537  0.50000000  1
  Sn  Sn33  1  0.58859731  0.17719463  0.00000000  1
  Sn  Sn34  1  0.08859731  0.17719463  0.50000000  1
  Sn  Sn35  1  0.41140269  0.82280537  0.00000000  1
