# generated using pymatgen
data_Lu(FeGe)6
_symmetry_space_group_name_H-M   'P 1'
_cell_length_a   5.09794731
_cell_length_b   5.09794730
_cell_length_c   8.13381658
_cell_angle_alpha   90.00000000
_cell_angle_beta   90.00000000
_cell_angle_gamma   119.99999999
_symmetry_Int_Tables_number   1
_chemical_formula_structural   Lu(FeGe)6
_chemical_formula_sum   'Lu1 Fe6 Ge6'
_cell_volume   183.06937154
_cell_formula_units_Z   1
loop_
 _symmetry_equiv_pos_site_id
 _symmetry_equiv_pos_as_xyz
  1  'x, y, z'
loop_
 _atom_site_type_symbol
 _atom_site_label
 _atom_site_symmetry_multiplicity
 _atom_site_fract_x
 _atom_site_fract_y
 _atom_site_fract_z
 _atom_site_occupancy
  Fe  Fe0  1  0.50000000  0.00000000  0.24938393  1
  Fe  Fe1  1  0.50000000  0.50000000  0.24938393  1
  Fe  Fe2  1  0.00000000  0.50000000  0.24938393  1
  Fe  Fe3  1  0.50000000  0.00000000  0.75061607  1
  Fe  Fe4  1  0.50000000  0.50000000  0.75061607  1
  Fe  Fe5  1  0.00000000  0.50000000  0.75061607  1
  Ge  Ge6  1  0.00000000  0.00000000  0.34498807  1
  Ge  Ge7  1  0.00000000  0.00000000  0.65501193  1
  Ge  Ge8  1  0.33333333  0.66666667  0.50000000  1
  Ge  Ge9  1  0.66666667  0.33333333  0.50000000  1
  Ge  Ge10  1  0.33333333  0.66666667  0.00000000  1
  Ge  Ge11  1  0.66666667  0.33333333  0.00000000  1
  Lu  Lu12  1  0.00000000  0.00000000  0.00000000  1
