# generated using pymatgen
data_LiNiPO4
_symmetry_space_group_name_H-M   'P 1'
_cell_length_a   9.51371861
_cell_length_b   6.22417180
_cell_length_c   4.85518149
_cell_angle_alpha   90.00000935
_cell_angle_beta   90.00128606
_cell_angle_gamma   90.00009659
_symmetry_Int_Tables_number   1
_chemical_formula_structural   LiNiPO4
_chemical_formula_sum   'Li4 Ni4 P4 O16'
_cell_volume   287.49966456
_cell_formula_units_Z   4
loop_
 _symmetry_equiv_pos_site_id
 _symmetry_equiv_pos_as_xyz
  1  'x, y, z'
loop_
 _atom_site_type_symbol
 _atom_site_label
 _atom_site_symmetry_multiplicity
 _atom_site_fract_x
 _atom_site_fract_y
 _atom_site_fract_z
 _atom_site_occupancy
  Li  Li0  1  0.99999877  0.99999646  0.00000692  1
  Li  Li1  1  0.99999860  0.50000406  0.00000680  1
  Li  Li2  1  0.50000705  0.99998606  0.49999222  1
  Li  Li3  1  0.50000705  0.50001424  0.49999229  1
  Ni  Ni4  1  0.14735738  0.74999929  0.46388185  1
  Ni  Ni5  1  0.35264243  0.25000114  0.96388597  1
  Ni  Ni6  1  0.64735675  0.74999513  0.03611461  1
  Ni  Ni7  1  0.85266323  0.24999941  0.53613417  1
  P  P8  1  0.18304816  0.25000045  0.46414636  1
  P  P9  1  0.31694250  0.74999996  0.96415816  1
  P  P10  1  0.68307052  0.25000043  0.03585611  1
  P  P11  1  0.81697935  0.74999923  0.53591470  1
  O  O12  1  0.16286644  0.25000025  0.78063448  1
  O  O13  1  0.11073145  0.05026513  0.33981686  1
  O  O14  1  0.11073179  0.44973538  0.33981744  1
  O  O15  1  0.15752413  0.75000073  0.88258231  1
  O  O16  1  0.34247407  0.25000011  0.38256746  1
  O  O17  1  0.38926930  0.94974219  0.83980612  1
  O  O18  1  0.38926885  0.55025891  0.83980606  1
  O  O19  1  0.33713324  0.74999990  0.28063660  1
  O  O20  1  0.66286596  0.25000085  0.71935363  1
  O  O21  1  0.61073303  0.05026408  0.16018016  1
  O  O22  1  0.61073306  0.44973546  0.16018006  1
  O  O23  1  0.65751533  0.75000017  0.61742042  1
  O  O24  1  0.84246133  0.24999978  0.11742648  1
  O  O25  1  0.88924736  0.55031795  0.66016708  1
  O  O26  1  0.88924800  0.94968292  0.66016773  1
  O  O27  1  0.83712485  0.75000032  0.21934693  1
