# generated using pymatgen
data_K2ZrO3
_symmetry_space_group_name_H-M   'P 1'
_cell_length_a   5.95096719
_cell_length_b   7.07465888
_cell_length_c   10.60943558
_cell_angle_alpha   90.00000000
_cell_angle_beta   90.00000000
_cell_angle_gamma   90.00000000
_symmetry_Int_Tables_number   1
_chemical_formula_structural   K2ZrO3
_chemical_formula_sum   'K8 Zr4 O12'
_cell_volume   446.66851443
_cell_formula_units_Z   4
loop_
 _symmetry_equiv_pos_site_id
 _symmetry_equiv_pos_as_xyz
  1  'x, y, z'
loop_
 _atom_site_type_symbol
 _atom_site_label
 _atom_site_symmetry_multiplicity
 _atom_site_fract_x
 _atom_site_fract_y
 _atom_site_fract_z
 _atom_site_occupancy
  O  O0  1  0.98314909  0.77044801  0.62155877  1
  O  O1  1  0.48314909  0.72955199  0.87844123  1
  O  O2  1  0.51685091  0.27044801  0.37844123  1
  O  O3  1  0.01685091  0.22955199  0.12155877  1
  O  O4  1  0.01685091  0.22955199  0.37844123  1
  O  O5  1  0.51685091  0.27044801  0.12155877  1
  O  O6  1  0.48314909  0.72955199  0.62155877  1
  O  O7  1  0.98314909  0.77044801  0.87844123  1
  O  O8  1  0.15841502  0.39058627  0.75000000  1
  O  O9  1  0.84158498  0.60941373  0.25000000  1
  O  O10  1  0.34158498  0.89058627  0.25000000  1
  O  O11  1  0.65841502  0.10941373  0.75000000  1
  K  K12  1  0.23540466  0.61469281  0.08565430  1
  K  K13  1  0.23540466  0.61469281  0.41434570  1
  K  K14  1  0.76459534  0.38530719  0.91434570  1
  K  K15  1  0.26459534  0.11469281  0.58565430  1
  K  K16  1  0.26459534  0.11469281  0.91434570  1
  K  K17  1  0.76459534  0.38530719  0.58565430  1
  K  K18  1  0.73540466  0.88530719  0.41434570  1
  K  K19  1  0.73540466  0.88530719  0.08565430  1
  Zr  Zr20  1  0.27958004  0.15907579  0.25000000  1
  Zr  Zr21  1  0.77958004  0.34092421  0.25000000  1
  Zr  Zr22  1  0.22041996  0.65907579  0.75000000  1
  Zr  Zr23  1  0.72041996  0.84092421  0.75000000  1
