# generated using pymatgen
data_Ba3AlSb3
_symmetry_space_group_name_H-M   'P 1'
_cell_length_a   7.28058029
_cell_length_b   11.30205444
_cell_length_c   14.27142818
_cell_angle_alpha   90.00000000
_cell_angle_beta   90.00000000
_cell_angle_gamma   108.78942760
_symmetry_Int_Tables_number   1
_chemical_formula_structural   Ba3AlSb3
_chemical_formula_sum   'Ba12 Al4 Sb12'
_cell_volume   1111.75015636
_cell_formula_units_Z   4
loop_
 _symmetry_equiv_pos_site_id
 _symmetry_equiv_pos_as_xyz
  1  'x, y, z'
loop_
 _atom_site_type_symbol
 _atom_site_label
 _atom_site_symmetry_multiplicity
 _atom_site_fract_x
 _atom_site_fract_y
 _atom_site_fract_z
 _atom_site_occupancy
  Al  Al0  1  0.41481900  0.82963799  0.50000000  1
  Al  Al1  1  0.08518100  0.17036201  0.00000000  1
  Al  Al2  1  0.58518100  0.17036201  0.50000000  1
  Al  Al3  1  0.91481900  0.82963799  0.00000000  1
  Sb  Sb4  1  0.95876849  0.31808979  0.11984995  1
  Sb  Sb5  1  0.14067870  0.68191021  0.38015005  1
  Sb  Sb6  1  0.54123151  0.68191021  0.61984995  1
  Sb  Sb7  1  0.35932130  0.31808979  0.88015005  1
  Sb  Sb8  1  0.04123151  0.68191021  0.88015005  1
  Sb  Sb9  1  0.85932130  0.31808979  0.61984995  1
  Sb  Sb10  1  0.45876849  0.31808979  0.38015005  1
  Sb  Sb11  1  0.64067870  0.68191021  0.11984995  1
  Sb  Sb12  1  0.29635696  0.00000000  0.60169726  1
  Sb  Sb13  1  0.79635696  0.00000000  0.89830274  1
  Sb  Sb14  1  0.20364304  0.00000000  0.10169726  1
  Sb  Sb15  1  0.70364304  0.00000000  0.39830274  1
  Ba  Ba16  1  0.47912641  0.34903402  0.12885336  1
  Ba  Ba17  1  0.63009239  0.65096598  0.37114664  1
  Ba  Ba18  1  0.02087359  0.65096598  0.62885336  1
  Ba  Ba19  1  0.86990761  0.34903402  0.87114664  1
  Ba  Ba20  1  0.52087359  0.65096598  0.87114664  1
  Ba  Ba21  1  0.36990761  0.34903402  0.62885336  1
  Ba  Ba22  1  0.97912641  0.34903402  0.37114664  1
  Ba  Ba23  1  0.13009239  0.65096598  0.12885336  1
  Ba  Ba24  1  0.18563052  0.00000000  0.35280770  1
  Ba  Ba25  1  0.68563052  0.00000000  0.14719230  1
  Ba  Ba26  1  0.31436948  0.00000000  0.85280770  1
  Ba  Ba27  1  0.81436948  0.00000000  0.64719230  1
