# generated using pymatgen
data_Sr3CuRhO6
_symmetry_space_group_name_H-M   'P 1'
_cell_length_a   6.79428655
_cell_length_b   6.79428655
_cell_length_c   6.73188479
_cell_angle_alpha   91.20107447
_cell_angle_beta   91.20107453
_cell_angle_gamma   92.32632186
_symmetry_Int_Tables_number   1
_chemical_formula_structural   Sr3CuRhO6
_chemical_formula_sum   'Sr6 Cu2 Rh2 O12'
_cell_volume   310.36114354
_cell_formula_units_Z   2
loop_
 _symmetry_equiv_pos_site_id
 _symmetry_equiv_pos_as_xyz
  1  'x, y, z'
loop_
 _atom_site_type_symbol
 _atom_site_label
 _atom_site_symmetry_multiplicity
 _atom_site_fract_x
 _atom_site_fract_y
 _atom_site_fract_z
 _atom_site_occupancy
  O  O0  1  0.28330044  0.60675649  0.46497328  1
  O  O1  1  0.39324351  0.71669956  0.03502672  1
  O  O2  1  0.71669956  0.39324351  0.53502672  1
  O  O3  1  0.60675649  0.28330044  0.96497328  1
  O  O4  1  0.07421358  0.21957165  0.43085822  1
  O  O5  1  0.78042835  0.92578642  0.06914178  1
  O  O6  1  0.92578642  0.78042835  0.56914178  1
  O  O7  1  0.21957165  0.07421358  0.93085822  1
  O  O8  1  0.10807518  0.47645933  0.78558299  1
  O  O9  1  0.52354067  0.89192482  0.71441701  1
  O  O10  1  0.47645933  0.10807518  0.28558299  1
  O  O11  1  0.89192482  0.52354067  0.21441701  1
  Cu  Cu12  1  0.69216200  0.30783800  0.25000000  1
  Cu  Cu13  1  0.30783800  0.69216200  0.75000000  1
  Sr  Sr14  1  0.10166906  0.89833094  0.25000000  1
  Sr  Sr15  1  0.89833094  0.10166906  0.75000000  1
  Sr  Sr16  1  0.76024860  0.61090630  0.87491362  1
  Sr  Sr17  1  0.38909370  0.23975140  0.62508638  1
  Sr  Sr18  1  0.23975140  0.38909370  0.12508638  1
  Sr  Sr19  1  0.61090630  0.76024860  0.37491362  1
  Rh  Rh20  1  0.00000000  0.50000000  0.50000000  1
  Rh  Rh21  1  0.50000000  0.00000000  0.00000000  1
