# generated using pymatgen
data_Nd2SiSeO4
_symmetry_space_group_name_H-M   'P 1'
_cell_length_a   6.25120858
_cell_length_b   7.23959027
_cell_length_c   11.12860492
_cell_angle_alpha   90.00000000
_cell_angle_beta   90.00000000
_cell_angle_gamma   90.00000000
_symmetry_Int_Tables_number   1
_chemical_formula_structural   Nd2SiSeO4
_chemical_formula_sum   'Nd8 Si4 Se4 O16'
_cell_volume   503.63824547
_cell_formula_units_Z   4
loop_
 _symmetry_equiv_pos_site_id
 _symmetry_equiv_pos_as_xyz
  1  'x, y, z'
loop_
 _atom_site_type_symbol
 _atom_site_label
 _atom_site_symmetry_multiplicity
 _atom_site_fract_x
 _atom_site_fract_y
 _atom_site_fract_z
 _atom_site_occupancy
  O  O0  1  0.27196950  0.42542229  0.03218543  1
  O  O1  1  0.27196950  0.07457771  0.96781457  1
  O  O2  1  0.72803050  0.92542229  0.46781457  1
  O  O3  1  0.72803050  0.57457771  0.53218543  1
  O  O4  1  0.72803050  0.57457771  0.96781457  1
  O  O5  1  0.72803050  0.92542229  0.03218543  1
  O  O6  1  0.27196950  0.07457771  0.53218543  1
  O  O7  1  0.27196950  0.42542229  0.46781457  1
  O  O8  1  0.04714367  0.73445633  0.11765635  1
  O  O9  1  0.04714367  0.73445633  0.38234365  1
  O  O10  1  0.95285633  0.23445633  0.38234365  1
  O  O11  1  0.95285633  0.26554367  0.61765635  1
  O  O12  1  0.95285633  0.26554367  0.88234365  1
  O  O13  1  0.95285633  0.23445633  0.11765635  1
  O  O14  1  0.04714367  0.76554367  0.61765635  1
  O  O15  1  0.04714367  0.76554367  0.88234365  1
  Si  Si16  1  0.11428038  0.25000000  0.50000000  1
  Si  Si17  1  0.88571962  0.75000000  0.50000000  1
  Si  Si18  1  0.88571962  0.75000000  0.00000000  1
  Si  Si19  1  0.11428038  0.25000000  0.00000000  1
  Se  Se20  1  0.57338219  0.88351693  0.75000000  1
  Se  Se21  1  0.57338219  0.61648307  0.25000000  1
  Se  Se22  1  0.42661781  0.38351693  0.75000000  1
  Se  Se23  1  0.42661781  0.11648307  0.25000000  1
  Nd  Nd24  1  0.60947872  0.25000000  0.50000000  1
  Nd  Nd25  1  0.60947872  0.25000000  0.00000000  1
  Nd  Nd26  1  0.39052128  0.75000000  0.50000000  1
  Nd  Nd27  1  0.39052128  0.75000000  0.00000000  1
  Nd  Nd28  1  0.86939334  0.53470813  0.75000000  1
  Nd  Nd29  1  0.86939334  0.96529187  0.25000000  1
  Nd  Nd30  1  0.13060666  0.03470813  0.75000000  1
  Nd  Nd31  1  0.13060666  0.46529187  0.25000000  1
