# generated using pymatgen
data_K2Si6GeO15
_symmetry_space_group_name_H-M   'P 1'
_cell_length_a   7.29715409
_cell_length_b   7.34943808
_cell_length_c   14.95826243
_cell_angle_alpha   76.18114068
_cell_angle_beta   75.88214911
_cell_angle_gamma   60.23505188
_symmetry_Int_Tables_number   1
_chemical_formula_structural   K2Si6GeO15
_chemical_formula_sum   'K4 Si12 Ge2 O30'
_cell_volume   668.70168286
_cell_formula_units_Z   2
loop_
 _symmetry_equiv_pos_site_id
 _symmetry_equiv_pos_as_xyz
  1  'x, y, z'
loop_
 _atom_site_type_symbol
 _atom_site_label
 _atom_site_symmetry_multiplicity
 _atom_site_fract_x
 _atom_site_fract_y
 _atom_site_fract_z
 _atom_site_occupancy
  O  O0  1  0.33410964  0.16907695  0.20721713  1
  O  O1  1  0.78959628  0.66907695  0.70721713  1
  O  O2  1  0.36434957  0.82551978  0.15966355  1
  O  O3  1  0.15046710  0.32551978  0.65966355  1
  O  O4  1  0.93981188  0.09367322  0.49996307  1
  O  O5  1  0.96655182  0.59367322  -0.00003693  1
  O  O6  1  0.34597538  0.85350152  0.46038115  1
  O  O7  1  0.84014195  0.35350152  0.96038115  1
  O  O8  1  0.06466277  0.21549362  0.10032212  1
  O  O9  1  0.11952149  0.71549362  0.60032212  1
  O  O10  1  0.22210271  0.65381713  0.07414180  1
  O  O11  1  0.54993836  0.15381713  0.57414180  1
  O  O12  1  0.62106252  0.15086348  0.05878671  1
  O  O13  1  0.66928728  0.65086348  0.55878671  1
  O  O14  1  0.60142153  0.45119942  0.45012854  1
  O  O15  1  0.99725051  0.95119942  0.95012854  1
  O  O16  1  0.75065498  0.98541877  0.22268413  1
  O  O17  1  0.54124212  0.48541877  0.72268413  1
  O  O18  1  0.47791495  0.15255042  0.75928867  1
  O  O19  1  0.11024596  0.65255042  0.25928867  1
  O  O20  1  0.66154223  0.20655430  0.87214855  1
  O  O21  1  0.75975492  0.70655430  0.37214855  1
  O  O22  1  0.33216005  0.59745366  0.89701521  1
  O  O23  1  0.67337108  0.09745366  0.39701521  1
  O  O24  1  0.26916230  0.24157501  0.92594434  1
  O  O25  1  0.06331836  0.74157501  0.42594434  1
  O  O26  1  0.12838939  0.56085969  0.78056946  1
  O  O27  1  0.03018146  0.06085969  0.28056946  1
  O  O28  1  0.38857286  0.91289754  0.68425908  1
  O  O29  1  0.51427052  0.41289754  0.18425908  1
  Si  Si30  1  0.56448812  0.17506351  0.16953541  1
  Si  Si31  1  0.59091297  0.67506351  0.66953541  1
  Si  Si32  1  0.69293953  0.19645361  0.47746999  1
  Si  Si33  1  0.13313686  0.69645361  0.97746999  1
  Si  Si34  1  0.11902499  0.84174987  0.49338981  1
  Si  Si35  1  0.04583532  0.34174987  0.99338981  1
  Si  Si36  1  0.19560626  0.06584386  0.18767497  1
  Si  Si37  1  0.05087492  0.56584386  0.68767497  1
  Si  Si38  1  0.29278879  0.63816022  0.17155952  1
  Si  Si39  1  0.39749147  0.13816022  0.67155952  1
  Si  Si40  1  0.59799441  0.67094094  0.45999502  1
  Si  Si41  1  0.77106963  0.17094094  0.95999502  1
  K  K42  1  0.78699990  0.57988210  0.21180662  1
  K  K43  1  0.92131137  0.07988210  0.71180662  1
  K  K44  1  0.20900628  0.31396150  0.40103962  1
  K  K45  1  0.57599260  0.81396150  0.90103962  1
  Ge  Ge46  1  0.89467740  0.88298985  0.32691554  1
  Ge  Ge47  1  0.39541721  0.38298985  0.82691554  1
