# generated using pymatgen
data_SrLi(B3O5)3
_symmetry_space_group_name_H-M   'P 1'
_cell_length_a   8.61179469
_cell_length_b   8.61179469
_cell_length_c   8.61179469
_cell_angle_alpha   77.83245230
_cell_angle_beta   77.83245236
_cell_angle_gamma   77.83245228
_symmetry_Int_Tables_number   1
_chemical_formula_structural   SrLi(B3O5)3
_chemical_formula_sum   'Sr2 Li2 B18 O30'
_cell_volume   600.98529680
_cell_formula_units_Z   2
loop_
 _symmetry_equiv_pos_site_id
 _symmetry_equiv_pos_as_xyz
  1  'x, y, z'
loop_
 _atom_site_type_symbol
 _atom_site_label
 _atom_site_symmetry_multiplicity
 _atom_site_fract_x
 _atom_site_fract_y
 _atom_site_fract_z
 _atom_site_occupancy
  Li  Li0  1  0.23313278  0.23313278  0.23313278  1
  Li  Li1  1  0.73313278  0.73313278  0.73313278  1
  B  B2  1  0.76886602  0.62513018  0.10389316  1
  B  B3  1  0.27530915  0.71128568  0.83365988  1
  B  B4  1  0.77530915  0.33365988  0.21128568  1
  B  B5  1  0.33365988  0.21128568  0.77530915  1
  B  B6  1  0.12513018  0.26886602  0.60389316  1
  B  B7  1  0.26886602  0.60389316  0.12513018  1
  B  B8  1  0.60389316  0.12513018  0.26886602  1
  B  B9  1  0.83365988  0.27530915  0.71128568  1
  B  B10  1  0.10389316  0.76886602  0.62513018  1
  B  B11  1  0.62513018  0.10389316  0.76886602  1
  B  B12  1  0.93976202  0.28057875  0.42276779  1
  B  B13  1  0.28057875  0.42276779  0.93976202  1
  B  B14  1  0.42276779  0.93976202  0.28057875  1
  B  B15  1  0.92276779  0.78057875  0.43976202  1
  B  B16  1  0.78057875  0.43976202  0.92276779  1
  B  B17  1  0.43976202  0.92276779  0.78057875  1
  B  B18  1  0.71128568  0.83365988  0.27530915  1
  B  B19  1  0.21128568  0.77530915  0.33365988  1
  O  O20  1  0.79533036  0.76912136  0.12531376  1
  O  O21  1  0.76912136  0.12531376  0.79533036  1
  O  O22  1  0.50505492  0.23108145  0.73515243  1
  O  O23  1  0.73515243  0.50505492  0.23108145  1
  O  O24  1  0.12531376  0.79533036  0.76912136  1
  O  O25  1  0.73108145  0.00505492  0.23515243  1
  O  O26  1  0.23515243  0.73108145  0.00505492  1
  O  O27  1  0.00505492  0.23515243  0.73108145  1
  O  O28  1  0.25973696  0.27476069  0.92548673  1
  O  O29  1  0.92548673  0.25973696  0.27476069  1
  O  O30  1  0.27476069  0.92548673  0.25973696  1
  O  O31  1  0.77476069  0.75973696  0.42548673  1
  O  O32  1  0.42548673  0.77476069  0.75973696  1
  O  O33  1  0.75973696  0.42548673  0.77476069  1
  O  O34  1  0.62531376  0.26912136  0.29533036  1
  O  O35  1  0.26912136  0.29533036  0.62531376  1
  O  O36  1  0.81126268  0.30747687  0.54248440  1
  O  O37  1  0.30747687  0.54248440  0.81126268  1
  O  O38  1  0.54248440  0.81126268  0.30747687  1
  O  O39  1  0.04248440  0.80747687  0.31126268  1
  O  O40  1  0.80747687  0.31126268  0.04248440  1
  O  O41  1  0.31126268  0.04248440  0.80747687  1
  O  O42  1  0.09839659  0.27497423  0.44688891  1
  O  O43  1  0.27497423  0.44688891  0.09839659  1
  O  O44  1  0.44688891  0.09839659  0.27497423  1
  O  O45  1  0.94688891  0.77497423  0.59839659  1
  O  O46  1  0.77497423  0.59839659  0.94688891  1
  O  O47  1  0.59839659  0.94688891  0.77497423  1
  O  O48  1  0.23108145  0.73515243  0.50505492  1
  O  O49  1  0.29533036  0.62531376  0.26912136  1
  Sr  Sr50  1  0.49219224  0.49219224  0.49219224  1
  Sr  Sr51  1  0.99219224  0.99219224  0.99219224  1
