# generated using pymatgen
data_Li2AgF4
_symmetry_space_group_name_H-M   'P 1'
_cell_length_a   8.71701965
_cell_length_b   8.71408851
_cell_length_c   5.66350501
_cell_angle_alpha   89.99203026
_cell_angle_beta   89.98143366
_cell_angle_gamma   89.99866556
_symmetry_Int_Tables_number   1
_chemical_formula_structural   Li2AgF4
_chemical_formula_sum   'Li8 Ag4 F16'
_cell_volume   430.20480175
_cell_formula_units_Z   4
loop_
 _symmetry_equiv_pos_site_id
 _symmetry_equiv_pos_as_xyz
  1  'x, y, z'
loop_
 _atom_site_type_symbol
 _atom_site_label
 _atom_site_symmetry_multiplicity
 _atom_site_fract_x
 _atom_site_fract_y
 _atom_site_fract_z
 _atom_site_occupancy
  Li  Li0  1  0.02293624  0.97712705  0.75040438  1
  Li  Li1  1  0.02300822  0.52297523  0.25035031  1
  Li  Li2  1  0.47690449  0.97681820  0.24966919  1
  Li  Li3  1  0.47711083  0.52300659  0.74961717  1
  Li  Li4  1  0.52297358  0.47704196  0.24959949  1
  Li  Li5  1  0.52280517  0.02281755  0.74960737  1
  Li  Li6  1  0.97697778  0.02312236  0.25038558  1
  Li  Li7  1  0.97713228  0.47706176  0.75033621  1
  Ag  Ag8  1  0.24974189  0.25019778  0.02225010  1
  Ag  Ag9  1  0.24972854  0.25035625  0.52225625  1
  Ag  Ag10  1  0.75027847  0.74978717  0.47776301  1
  Ag  Ag11  1  0.75033305  0.74967172  0.97775090  1
  F  F12  1  0.03026282  0.14905418  0.52754511  1
  F  F13  1  0.03048186  0.35105253  0.02752172  1
  F  F14  1  0.14881059  0.03015283  0.02746220  1
  F  F15  1  0.14904243  0.46977852  0.52736023  1
  F  F16  1  0.35128673  0.46963969  0.02676052  1
  F  F17  1  0.35113865  0.03006115  0.52685713  1
  F  F18  1  0.46979124  0.35121479  0.52672844  1
  F  F19  1  0.46985909  0.14851892  0.02670484  1
  F  F20  1  0.53006134  0.85103101  0.97244557  1
  F  F21  1  0.53022820  0.64891137  0.47235070  1
  F  F22  1  0.64861550  0.96997123  0.47247366  1
  F  F23  1  0.64891400  0.53016673  0.97249849  1
  F  F24  1  0.85119265  0.96976570  0.97330332  1
  F  F25  1  0.85119049  0.53048368  0.47328944  1
  F  F26  1  0.96961494  0.85136484  0.47340262  1
  F  F27  1  0.96964093  0.64890423  0.97330406  1
