# generated using pymatgen
data_Rb6Si2O7
_symmetry_space_group_name_H-M   'P 1'
_cell_length_a   6.85814741
_cell_length_b   9.31789941
_cell_length_c   9.38692552
_cell_angle_alpha   90.00000000
_cell_angle_beta   91.10306910
_cell_angle_gamma   90.00000000
_symmetry_Int_Tables_number   1
_chemical_formula_structural   Rb6Si2O7
_chemical_formula_sum   'Rb12 Si4 O14'
_cell_volume   599.74649124
_cell_formula_units_Z   2
loop_
 _symmetry_equiv_pos_site_id
 _symmetry_equiv_pos_as_xyz
  1  'x, y, z'
loop_
 _atom_site_type_symbol
 _atom_site_label
 _atom_site_symmetry_multiplicity
 _atom_site_fract_x
 _atom_site_fract_y
 _atom_site_fract_z
 _atom_site_occupancy
  O  O0  1  0.06836170  0.27661576  0.06439272  1
  O  O1  1  0.00000000  0.00000000  0.00000000  1
  O  O2  1  0.50000000  0.50000000  0.50000000  1
  O  O3  1  0.95647477  0.92130329  0.72265227  1
  O  O4  1  0.43163830  0.77661576  0.43560728  1
  O  O5  1  0.93163830  0.72338424  0.93560728  1
  O  O6  1  0.56836170  0.22338424  0.56439272  1
  O  O7  1  0.78418642  0.65616894  0.37600164  1
  O  O8  1  0.71581358  0.15616894  0.12399836  1
  O  O9  1  0.21581358  0.34383106  0.62399836  1
  O  O10  1  0.28418642  0.84383106  0.87600164  1
  O  O11  1  0.45647477  0.57869671  0.22265227  1
  O  O12  1  0.04352523  0.07869671  0.27734773  1
  O  O13  1  0.54352523  0.42130329  0.77734773  1
  Si  Si14  1  0.54536908  0.63203425  0.37821478  1
  Si  Si15  1  0.04536908  0.86796575  0.87821478  1
  Si  Si16  1  0.45463092  0.36796575  0.62178522  1
  Si  Si17  1  0.95463092  0.13203425  0.12178522  1
  Rb  Rb18  1  0.88566266  0.35288217  0.40863675  1
  Rb  Rb19  1  0.38566266  0.14711783  0.90863675  1
  Rb  Rb20  1  0.11433734  0.64711783  0.59136325  1
  Rb  Rb21  1  0.74808829  0.97285033  0.45641772  1
  Rb  Rb22  1  0.75191171  0.47285033  0.04358228  1
  Rb  Rb23  1  0.25191171  0.02714967  0.54358228  1
  Rb  Rb24  1  0.24808829  0.52714967  0.95641772  1
  Rb  Rb25  1  0.38271320  0.27887098  0.27515650  1
  Rb  Rb26  1  0.11728680  0.77887098  0.22484350  1
  Rb  Rb27  1  0.61728680  0.72112902  0.72484350  1
  Rb  Rb28  1  0.88271320  0.22112902  0.77515650  1
  Rb  Rb29  1  0.61433734  0.85288217  0.09136325  1
