# generated using pymatgen
data_Sr2UO5
_symmetry_space_group_name_H-M   'P 1'
_cell_length_a   5.72560058
_cell_length_b   8.16564434
_cell_length_c   12.02594333
_cell_angle_alpha   108.49826356
_cell_angle_beta   90.00000000
_cell_angle_gamma   90.00000000
_symmetry_Int_Tables_number   1
_chemical_formula_structural   Sr2UO5
_chemical_formula_sum   'Sr8 U4 O20'
_cell_volume   533.20185162
_cell_formula_units_Z   4
loop_
 _symmetry_equiv_pos_site_id
 _symmetry_equiv_pos_as_xyz
  1  'x, y, z'
loop_
 _atom_site_type_symbol
 _atom_site_label
 _atom_site_symmetry_multiplicity
 _atom_site_fract_x
 _atom_site_fract_y
 _atom_site_fract_z
 _atom_site_occupancy
  O  O0  1  0.65226521  0.74918093  0.50116360  1
  O  O1  1  0.15226521  0.25081907  0.99883640  1
  O  O2  1  0.34773479  0.25081907  0.49883640  1
  O  O3  1  0.84773479  0.74918093  0.00116360  1
  O  O4  1  0.75646972  0.98121856  0.37795514  1
  O  O5  1  0.25646972  0.01878144  0.12204486  1
  O  O6  1  0.24353028  0.01878144  0.62204486  1
  O  O7  1  0.74353028  0.98121856  0.87795514  1
  O  O8  1  0.79777983  0.39512653  0.42495234  1
  O  O9  1  0.29777983  0.60487347  0.07504766  1
  O  O10  1  0.20222017  0.60487347  0.57504766  1
  O  O11  1  0.70222017  0.39512653  0.92495234  1
  O  O12  1  0.66971907  0.55389047  0.66423891  1
  O  O13  1  0.16971907  0.44610953  0.83576109  1
  O  O14  1  0.33028093  0.44610953  0.33576109  1
  O  O15  1  0.83028093  0.55389047  0.16423891  1
  O  O16  1  0.71117605  0.10830673  0.64058398  1
  O  O17  1  0.21117605  0.89169327  0.85941602  1
  O  O18  1  0.28882395  0.89169327  0.35941602  1
  O  O19  1  0.78882395  0.10830673  0.14058398  1
  Sr  Sr20  1  0.93393911  0.84409529  0.68104667  1
  Sr  Sr21  1  0.43393911  0.15590471  0.81895333  1
  Sr  Sr22  1  0.06606089  0.15590471  0.31895333  1
  Sr  Sr23  1  0.56606089  0.84409529  0.18104667  1
  Sr  Sr24  1  0.50024637  0.65944629  0.86121306  1
  Sr  Sr25  1  0.00024637  0.34055371  0.63878694  1
  Sr  Sr26  1  0.49975363  0.34055371  0.13878694  1
  Sr  Sr27  1  0.99975363  0.65944629  0.36121306  1
  U  U28  1  0.00000000  0.00000000  0.00000000  1
  U  U29  1  0.50000000  0.00000000  0.50000000  1
  U  U30  1  0.00000000  0.50000000  0.00000000  1
  U  U31  1  0.50000000  0.50000000  0.50000000  1
