# generated using pymatgen
data_SrMgP2O7
_symmetry_space_group_name_H-M   'P 1'
_cell_length_a   5.37309628
_cell_length_b   8.39069214
_cell_length_c   12.93955140
_cell_angle_alpha   90.00000000
_cell_angle_beta   90.75191471
_cell_angle_gamma   90.00000000
_symmetry_Int_Tables_number   1
_chemical_formula_structural   SrMgP2O7
_chemical_formula_sum   'Sr4 Mg4 P8 O28'
_cell_volume   583.31645870
_cell_formula_units_Z   4
loop_
 _symmetry_equiv_pos_site_id
 _symmetry_equiv_pos_as_xyz
  1  'x, y, z'
loop_
 _atom_site_type_symbol
 _atom_site_label
 _atom_site_symmetry_multiplicity
 _atom_site_fract_x
 _atom_site_fract_y
 _atom_site_fract_z
 _atom_site_occupancy
  O  O0  1  0.32998605  0.09563210  0.09948096  1
  O  O1  1  0.17001395  0.59563210  0.40051904  1
  O  O2  1  0.67001395  0.90436790  0.90051904  1
  O  O3  1  0.82998605  0.40436790  0.59948096  1
  O  O4  1  0.90710649  0.17008790  0.02264312  1
  O  O5  1  0.59289351  0.67008790  0.47735688  1
  O  O6  1  0.09289351  0.82991210  0.97735688  1
  O  O7  1  0.40710649  0.32991210  0.52264312  1
  O  O8  1  0.30821660  0.19526234  0.91419837  1
  O  O9  1  0.19178340  0.69526234  0.58580163  1
  O  O10  1  0.69178340  0.80473766  0.08580163  1
  O  O11  1  0.80821660  0.30473766  0.41419837  1
  O  O12  1  0.04814516  0.38456073  0.23767459  1
  O  O13  1  0.45185484  0.88456073  0.26232541  1
  O  O14  1  0.95185484  0.61543927  0.76232541  1
  O  O15  1  0.54814516  0.11543927  0.73767459  1
  O  O16  1  0.73213905  0.11428284  0.55629271  1
  O  O17  1  0.76786095  0.61428284  0.94370729  1
  O  O18  1  0.26786095  0.88571716  0.44370729  1
  O  O19  1  0.23213905  0.38571716  0.05629271  1
  O  O20  1  0.67907596  0.85953220  0.65471915  1
  O  O21  1  0.82092404  0.35953220  0.84528085  1
  O  O22  1  0.32092404  0.14046780  0.34528085  1
  O  O23  1  0.17907596  0.64046780  0.15471915  1
  O  O24  1  0.00739333  0.06118488  0.71411168  1
  O  O25  1  0.49260667  0.56118488  0.78588832  1
  O  O26  1  0.99260667  0.93881512  0.28588832  1
  O  O27  1  0.50739333  0.43881512  0.21411168  1
  Mg  Mg28  1  0.17786160  0.34950000  0.39266232  1
  Mg  Mg29  1  0.67786160  0.15050000  0.89266232  1
  Mg  Mg30  1  0.82213840  0.65050000  0.60733768  1
  Mg  Mg31  1  0.32213840  0.84950000  0.10733768  1
  P  P32  1  0.25436627  0.96545832  0.33019939  1
  P  P33  1  0.18840537  0.20157780  0.02098822  1
  P  P34  1  0.75436627  0.53454168  0.83019939  1
  P  P35  1  0.74563373  0.03454168  0.66980061  1
  P  P36  1  0.81159463  0.79842220  0.97901178  1
  P  P37  1  0.68840537  0.29842220  0.52098822  1
  P  P38  1  0.31159463  0.70157780  0.47901178  1
  P  P39  1  0.24563373  0.46545832  0.16980061  1
  Sr  Sr40  1  0.71241534  0.16430131  0.22207637  1
  Sr  Sr41  1  0.78758466  0.66430131  0.27792363  1
  Sr  Sr42  1  0.28758466  0.83569869  0.77792363  1
  Sr  Sr43  1  0.21241534  0.33569869  0.72207637  1
