# generated using pymatgen
data_K3Sn4Au
_symmetry_space_group_name_H-M   'P 1'
_cell_length_a   6.66675844
_cell_length_b   6.94496658
_cell_length_c   12.88316501
_cell_angle_alpha   90.00000000
_cell_angle_beta   90.00000000
_cell_angle_gamma   90.00000000
_symmetry_Int_Tables_number   1
_chemical_formula_structural   K3Sn4Au
_chemical_formula_sum   'K6 Sn8 Au2'
_cell_volume   596.49588084
_cell_formula_units_Z   2
loop_
 _symmetry_equiv_pos_site_id
 _symmetry_equiv_pos_as_xyz
  1  'x, y, z'
loop_
 _atom_site_type_symbol
 _atom_site_label
 _atom_site_symmetry_multiplicity
 _atom_site_fract_x
 _atom_site_fract_y
 _atom_site_fract_z
 _atom_site_occupancy
  K  K0  1  0.55820873  0.25000000  0.25000000  1
  K  K1  1  0.44179127  0.75000000  0.75000000  1
  K  K2  1  0.82801642  0.75000000  0.99685164  1
  K  K3  1  0.82801642  0.75000000  0.50314836  1
  K  K4  1  0.17198358  0.25000000  0.00314836  1
  K  K5  1  0.17198358  0.25000000  0.49685164  1
  Sn  Sn6  1  0.33278966  0.75000000  0.12805701  1
  Sn  Sn7  1  0.33278966  0.75000000  0.37194299  1
  Sn  Sn8  1  0.04006149  0.51829858  0.25000000  1
  Sn  Sn9  1  0.04006149  0.98170142  0.25000000  1
  Sn  Sn10  1  0.95993851  0.01829858  0.75000000  1
  Sn  Sn11  1  0.95993851  0.48170142  0.75000000  1
  Sn  Sn12  1  0.66721034  0.25000000  0.62805701  1
  Sn  Sn13  1  0.66721034  0.25000000  0.87194299  1
  Au  Au14  1  0.68728210  0.75000000  0.25000000  1
  Au  Au15  1  0.31271790  0.25000000  0.75000000  1
