# generated using pymatgen
data_CsHo3Te5
_symmetry_space_group_name_H-M   'P 1'
_cell_length_a   4.41002277
_cell_length_b   13.19676950
_cell_length_c   23.81560412
_cell_angle_alpha   90.00000000
_cell_angle_beta   90.00000000
_cell_angle_gamma   90.00000000
_symmetry_Int_Tables_number   1
_chemical_formula_structural   CsHo3Te5
_chemical_formula_sum   'Cs4 Ho12 Te20'
_cell_volume   1386.02181427
_cell_formula_units_Z   4
loop_
 _symmetry_equiv_pos_site_id
 _symmetry_equiv_pos_as_xyz
  1  'x, y, z'
loop_
 _atom_site_type_symbol
 _atom_site_label
 _atom_site_symmetry_multiplicity
 _atom_site_fract_x
 _atom_site_fract_y
 _atom_site_fract_z
 _atom_site_occupancy
  Te  Te0  1  0.25000000  0.44393868  0.56884286  1
  Te  Te1  1  0.75000000  0.55606132  0.43115714  1
  Te  Te2  1  0.75000000  0.94393868  0.93115714  1
  Te  Te3  1  0.25000000  0.05606132  0.06884286  1
  Te  Te4  1  0.25000000  0.76922653  0.54699723  1
  Te  Te5  1  0.75000000  0.23077347  0.45300277  1
  Te  Te6  1  0.75000000  0.26922653  0.95300277  1
  Te  Te7  1  0.25000000  0.73077347  0.04699723  1
  Te  Te8  1  0.25000000  0.79770846  0.80314306  1
  Te  Te9  1  0.75000000  0.20229154  0.19685694  1
  Te  Te10  1  0.75000000  0.29770846  0.69685694  1
  Te  Te11  1  0.25000000  0.70229154  0.30314306  1
  Te  Te12  1  0.25000000  0.45438447  0.82573040  1
  Te  Te13  1  0.75000000  0.54561553  0.17426960  1
  Te  Te14  1  0.75000000  0.95438447  0.67426960  1
  Te  Te15  1  0.25000000  0.04561553  0.32573040  1
  Te  Te16  1  0.25000000  0.37529021  0.31376840  1
  Te  Te17  1  0.75000000  0.62470979  0.68623160  1
  Te  Te18  1  0.75000000  0.87529021  0.18623160  1
  Te  Te19  1  0.25000000  0.12470979  0.81376840  1
  Cs  Cs20  1  0.25000000  0.35404634  0.08917665  1
  Cs  Cs21  1  0.75000000  0.64595366  0.91082335  1
  Cs  Cs22  1  0.75000000  0.85404634  0.41082335  1
  Cs  Cs23  1  0.25000000  0.14595366  0.58917665  1
  Ho  Ho24  1  0.25000000  0.45383215  0.69760960  1
  Ho  Ho25  1  0.75000000  0.54616785  0.30239040  1
  Ho  Ho26  1  0.75000000  0.95383215  0.80239040  1
  Ho  Ho27  1  0.25000000  0.04616785  0.19760960  1
  Ho  Ho28  1  0.25000000  0.79678176  0.67484161  1
  Ho  Ho29  1  0.75000000  0.20321824  0.32515839  1
  Ho  Ho30  1  0.75000000  0.29678176  0.82515839  1
  Ho  Ho31  1  0.25000000  0.70321824  0.17484161  1
  Ho  Ho32  1  0.25000000  0.39212934  0.44437861  1
  Ho  Ho33  1  0.75000000  0.60787066  0.55562139  1
  Ho  Ho34  1  0.75000000  0.89212934  0.05562139  1
  Ho  Ho35  1  0.25000000  0.10787066  0.94437861  1
