# generated using pymatgen
data_Yb4Al23Ni6
_symmetry_space_group_name_H-M   'P 1'
_cell_length_a   4.07833472
_cell_length_b   8.24756697
_cell_length_c   17.02291405
_cell_angle_alpha   85.17351917
_cell_angle_beta   83.12004244
_cell_angle_gamma   75.68547155
_symmetry_Int_Tables_number   1
_chemical_formula_structural   Yb4Al23Ni6
_chemical_formula_sum   'Yb4 Al23 Ni6'
_cell_volume   549.93098688
_cell_formula_units_Z   1
loop_
 _symmetry_equiv_pos_site_id
 _symmetry_equiv_pos_as_xyz
  1  'x, y, z'
loop_
 _atom_site_type_symbol
 _atom_site_label
 _atom_site_symmetry_multiplicity
 _atom_site_fract_x
 _atom_site_fract_y
 _atom_site_fract_z
 _atom_site_occupancy
  Al  Al0  1  0.00000000  0.50000000  0.50000000  1
  Al  Al1  1  0.85543480  0.43163272  0.85749768  1
  Al  Al2  1  0.91931513  0.47411522  0.68725451  1
  Al  Al3  1  0.08068487  0.52588478  0.31274549  1
  Al  Al4  1  0.91005239  0.13070011  0.04919511  1
  Al  Al5  1  0.08994761  0.86929989  0.95080489  1
  Al  Al6  1  0.90818895  0.90543173  0.27819036  1
  Al  Al7  1  0.09181105  0.09456827  0.72180964  1
  Al  Al8  1  0.79776484  0.88298162  0.52148870  1
  Al  Al9  1  0.20223516  0.11701838  0.47851130  1
  Al  Al10  1  0.14456520  0.56836728  0.14250232  1
  Al  Al11  1  0.60887946  0.94420991  0.83803116  1
  Al  Al12  1  0.74485173  0.46392649  0.04637005  1
  Al  Al13  1  0.25514827  0.53607351  0.95362995  1
  Al  Al14  1  0.39112054  0.05579009  0.16196884  1
  Al  Al15  1  0.46748327  0.28387256  0.78116089  1
  Al  Al16  1  0.72824413  0.86697959  0.67653215  1
  Al  Al17  1  0.27175587  0.13302041  0.32346785  1
  Al  Al18  1  0.62153651  0.35261762  0.40430936  1
  Al  Al19  1  0.37846349  0.64738238  0.59569064  1
  Al  Al20  1  0.56848534  0.80218241  0.06084692  1
  Al  Al21  1  0.43151466  0.19781759  0.93915308  1
  Al  Al22  1  0.53251673  0.71612744  0.21883911  1
  Ni  Ni23  1  0.99325300  0.87931967  0.13417434  1
  Ni  Ni24  1  0.00674700  0.12068033  0.86582566  1
  Ni  Ni25  1  0.77280522  0.05688960  0.39749995  1
  Ni  Ni26  1  0.68937168  0.68835416  0.93290248  1
  Ni  Ni27  1  0.22719478  0.94311040  0.60250005  1
  Ni  Ni28  1  0.31062832  0.31164584  0.06709752  1
  Yb  Yb29  1  0.73840441  0.30765717  0.21553400  1
  Yb  Yb30  1  0.57880169  0.24915185  0.59324477  1
  Yb  Yb31  1  0.42119831  0.75084815  0.40675523  1
  Yb  Yb32  1  0.26159559  0.69234283  0.78446600  1
