# generated using pymatgen
data_KBe3ZnF9
_symmetry_space_group_name_H-M   'P 1'
_cell_length_a   6.68106177
_cell_length_b   6.68106178
_cell_length_c   9.76666565
_cell_angle_alpha   90.00000000
_cell_angle_beta   90.00000000
_cell_angle_gamma   120.00000002
_symmetry_Int_Tables_number   1
_chemical_formula_structural   KBe3ZnF9
_chemical_formula_sum   'K2 Be6 Zn2 F18'
_cell_volume   377.54430747
_cell_formula_units_Z   2
loop_
 _symmetry_equiv_pos_site_id
 _symmetry_equiv_pos_as_xyz
  1  'x, y, z'
loop_
 _atom_site_type_symbol
 _atom_site_label
 _atom_site_symmetry_multiplicity
 _atom_site_fract_x
 _atom_site_fract_y
 _atom_site_fract_z
 _atom_site_occupancy
  Be  Be0  1  0.21746897  0.94118539  0.25000000  1
  Be  Be1  1  0.21746897  0.27628357  0.75000000  1
  Be  Be2  1  0.72371643  0.94118539  0.75000000  1
  Be  Be3  1  0.05881461  0.78253103  0.75000000  1
  Be  Be4  1  0.05881461  0.27628357  0.25000000  1
  Be  Be5  1  0.72371643  0.78253103  0.25000000  1
  F  F6  1  0.07597191  0.66295451  0.61852750  1
  F  F7  1  0.58698259  0.92402809  0.61852750  1
  F  F8  1  0.33704549  0.41301741  0.61852750  1
  F  F9  1  0.33704549  0.92402809  0.38147250  1
  F  F10  1  0.24119587  0.19112514  0.25000000  1
  F  F11  1  0.94992927  0.75880413  0.25000000  1
  F  F12  1  0.80887486  0.05007073  0.25000000  1
  F  F13  1  0.80887486  0.75880413  0.75000000  1
  F  F14  1  0.94992927  0.19112514  0.75000000  1
  F  F15  1  0.24119587  0.05007073  0.75000000  1
  F  F16  1  0.33704549  0.92402809  0.11852750  1
  F  F17  1  0.58698259  0.66295451  0.38147250  1
  F  F18  1  0.07597191  0.41301741  0.38147250  1
  F  F19  1  0.07597191  0.41301741  0.11852750  1
  F  F20  1  0.58698259  0.66295451  0.11852750  1
  F  F21  1  0.07597191  0.66295451  0.88147250  1
  F  F22  1  0.58698259  0.92402809  0.88147250  1
  F  F23  1  0.33704549  0.41301741  0.88147250  1
  K  K24  1  0.66666667  0.33333333  0.00000000  1
  K  K25  1  0.66666667  0.33333333  0.50000000  1
  Zn  Zn26  1  0.33333333  0.66666667  0.00000000  1
  Zn  Zn27  1  0.33333333  0.66666667  0.50000000  1
