# generated using pymatgen
data_LiSb3(P3O10)2
_symmetry_space_group_name_H-M   'P 1'
_cell_length_a   8.79763823
_cell_length_b   8.79763823
_cell_length_c   12.82297830
_cell_angle_alpha   90.00000000
_cell_angle_beta   90.00000000
_cell_angle_gamma   75.20723294
_symmetry_Int_Tables_number   1
_chemical_formula_structural   LiSb3(P3O10)2
_chemical_formula_sum   'Li2 Sb6 P12 O40'
_cell_volume   959.58342057
_cell_formula_units_Z   2
loop_
 _symmetry_equiv_pos_site_id
 _symmetry_equiv_pos_as_xyz
  1  'x, y, z'
loop_
 _atom_site_type_symbol
 _atom_site_label
 _atom_site_symmetry_multiplicity
 _atom_site_fract_x
 _atom_site_fract_y
 _atom_site_fract_z
 _atom_site_occupancy
  Li  Li0  1  0.50278928  0.49721072  0.50000000  1
  Li  Li1  1  0.49721072  0.50278928  0.00000000  1
  Sb  Sb2  1  0.13566117  0.86433883  0.00000000  1
  Sb  Sb3  1  0.29871302  0.29871302  0.25000000  1
  Sb  Sb4  1  0.23750072  0.23750072  0.75000000  1
  Sb  Sb5  1  0.70128698  0.70128698  0.75000000  1
  Sb  Sb6  1  0.76249928  0.76249928  0.25000000  1
  Sb  Sb7  1  0.86433883  0.13566117  0.50000000  1
  P  P8  1  0.36856327  0.90123617  0.32292466  1
  P  P9  1  0.09876383  0.63143673  0.67707534  1
  P  P10  1  0.19066889  0.70394489  0.22847858  1
  P  P11  1  0.29605511  0.80933111  0.77152142  1
  P  P12  1  0.14388127  0.27399225  0.01267051  1
  P  P13  1  0.72600775  0.85611873  0.98732949  1
  P  P14  1  0.27399225  0.14388127  0.48732949  1
  P  P15  1  0.85611873  0.72600775  0.51267051  1
  P  P16  1  0.70394489  0.19066889  0.27152142  1
  P  P17  1  0.80933111  0.29605511  0.72847858  1
  P  P18  1  0.63143673  0.09876383  0.82292466  1
  P  P19  1  0.90123617  0.36856327  0.17707534  1
  O  O20  1  0.16060476  0.78896130  0.68975712  1
  O  O21  1  0.21103870  0.83939524  0.31024288  1
  O  O22  1  0.03179287  0.64848125  0.56072784  1
  O  O23  1  0.35151875  0.96820713  0.43927216  1
  O  O24  1  0.27984913  0.71971482  0.87573955  1
  O  O25  1  0.28028518  0.72015087  0.12426045  1
  O  O26  1  0.64020226  0.97114651  0.74376770  1
  O  O27  1  0.02885349  0.35979774  0.25623230  1
  O  O28  1  0.26548577  0.55169463  0.28540992  1
  O  O29  1  0.44830537  0.73451423  0.71459008  1
  O  O30  1  0.98447947  0.25670490  0.70237123  1
  O  O31  1  0.74329510  0.01552053  0.29762877  1
  O  O32  1  0.51166752  0.76192365  0.32250925  1
  O  O33  1  0.23807635  0.48833248  0.67749075  1
  O  O34  1  0.67561860  0.87704223  0.10047916  1
  O  O35  1  0.12295777  0.32438140  0.89952084  1
  O  O36  1  0.82714240  0.90470920  0.53089708  1
  O  O37  1  0.09529080  0.17285760  0.46910292  1
  O  O38  1  0.65723182  0.73616403  0.92927172  1
  O  O39  1  0.26383597  0.34276818  0.07072828  1
  O  O40  1  0.73616403  0.65723182  0.57072828  1
  O  O41  1  0.34276818  0.26383597  0.42927172  1
  O  O42  1  0.17285760  0.09529080  0.03089708  1
  O  O43  1  0.90470920  0.82714240  0.96910292  1
  O  O44  1  0.32438140  0.12295777  0.60047916  1
  O  O45  1  0.87704223  0.67561860  0.39952084  1
  O  O46  1  0.48833248  0.23807635  0.82250925  1
  O  O47  1  0.76192365  0.51166752  0.17749075  1
  O  O48  1  0.25670490  0.98447947  0.79762877  1
  O  O49  1  0.01552053  0.74329510  0.20237123  1
  O  O50  1  0.73451423  0.44830537  0.78540992  1
  O  O51  1  0.55169463  0.26548577  0.21459008  1
  O  O52  1  0.35979774  0.02885349  0.24376770  1
  O  O53  1  0.97114651  0.64020226  0.75623230  1
  O  O54  1  0.71971482  0.27984913  0.62426045  1
  O  O55  1  0.72015087  0.28028518  0.37573955  1
  O  O56  1  0.96820713  0.35151875  0.06072784  1
  O  O57  1  0.64848125  0.03179287  0.93927216  1
  O  O58  1  0.78896130  0.16060476  0.81024288  1
  O  O59  1  0.83939524  0.21103870  0.18975712  1
