# generated using pymatgen
data_Nd2SiTeO4
_symmetry_space_group_name_H-M   'P 1'
_cell_length_a   6.35765808
_cell_length_b   7.26720564
_cell_length_c   11.30188354
_cell_angle_alpha   90.00000000
_cell_angle_beta   90.00000000
_cell_angle_gamma   90.00000000
_symmetry_Int_Tables_number   1
_chemical_formula_structural   Nd2SiTeO4
_chemical_formula_sum   'Nd8 Si4 Te4 O16'
_cell_volume   522.17424190
_cell_formula_units_Z   4
loop_
 _symmetry_equiv_pos_site_id
 _symmetry_equiv_pos_as_xyz
  1  'x, y, z'
loop_
 _atom_site_type_symbol
 _atom_site_label
 _atom_site_symmetry_multiplicity
 _atom_site_fract_x
 _atom_site_fract_y
 _atom_site_fract_z
 _atom_site_occupancy
  O  O0  1  0.26952675  0.07711696  0.46437303  1
  O  O1  1  0.26952675  0.42288304  0.53562697  1
  O  O2  1  0.73047325  0.57711696  0.03562697  1
  O  O3  1  0.73047325  0.92288304  0.96437303  1
  O  O4  1  0.73047325  0.92288304  0.53562697  1
  O  O5  1  0.73047325  0.57711696  0.46437303  1
  O  O6  1  0.26952675  0.42288304  0.96437303  1
  O  O7  1  0.26952675  0.07711696  0.03562697  1
  O  O8  1  0.04785404  0.76930007  0.38482944  1
  O  O9  1  0.04785404  0.76930007  0.11517056  1
  O  O10  1  0.95214596  0.26930007  0.11517056  1
  O  O11  1  0.95214596  0.23069993  0.88482944  1
  O  O12  1  0.95214596  0.23069993  0.61517056  1
  O  O13  1  0.95214596  0.26930007  0.38482944  1
  O  O14  1  0.04785404  0.73069993  0.88482944  1
  O  O15  1  0.04785404  0.73069993  0.61517056  1
  Si  Si16  1  0.11427195  0.25000000  0.00000000  1
  Si  Si17  1  0.88572805  0.75000000  0.00000000  1
  Si  Si18  1  0.88572805  0.75000000  0.50000000  1
  Si  Si19  1  0.11427195  0.25000000  0.50000000  1
  Te  Te20  1  0.59608946  0.57916364  0.75000000  1
  Te  Te21  1  0.59608946  0.92083636  0.25000000  1
  Te  Te22  1  0.40391054  0.07916364  0.75000000  1
  Te  Te23  1  0.40391054  0.42083636  0.25000000  1
  Nd  Nd24  1  0.38792827  0.75000000  0.50000000  1
  Nd  Nd25  1  0.38792827  0.75000000  0.00000000  1
  Nd  Nd26  1  0.61207173  0.25000000  0.50000000  1
  Nd  Nd27  1  0.61207173  0.25000000  0.00000000  1
  Nd  Nd28  1  0.88724484  0.96107806  0.75000000  1
  Nd  Nd29  1  0.88724484  0.53892194  0.25000000  1
  Nd  Nd30  1  0.11275516  0.46107806  0.75000000  1
  Nd  Nd31  1  0.11275516  0.03892194  0.25000000  1
