# generated using pymatgen
data_AgF3
_symmetry_space_group_name_H-M   'P 1'
_cell_length_a   5.19554040
_cell_length_b   5.19554040
_cell_length_c   15.42980954
_cell_angle_alpha   90.00000000
_cell_angle_beta   90.00000000
_cell_angle_gamma   120.00000002
_symmetry_Int_Tables_number   1
_chemical_formula_structural   AgF3
_chemical_formula_sum   'Ag6 F18'
_cell_volume   360.70540424
_cell_formula_units_Z   6
loop_
 _symmetry_equiv_pos_site_id
 _symmetry_equiv_pos_as_xyz
  1  'x, y, z'
loop_
 _atom_site_type_symbol
 _atom_site_label
 _atom_site_symmetry_multiplicity
 _atom_site_fract_x
 _atom_site_fract_y
 _atom_site_fract_z
 _atom_site_occupancy
  F  F0  1  0.89263245  0.55548762  0.16432072  1
  F  F1  1  0.44451238  0.33714483  0.49765405  1
  F  F2  1  0.66285517  0.10736755  0.83098738  1
  F  F3  1  0.33714483  0.89263245  0.33098738  1
  F  F4  1  0.10736755  0.66285517  0.50234595  1
  F  F5  1  0.10736755  0.44451238  0.66432072  1
  F  F6  1  0.25732643  0.00000000  0.00000000  1
  F  F7  1  0.25732643  0.25732643  0.16666667  1
  F  F8  1  0.00000000  0.74267357  0.83333333  1
  F  F9  1  0.00000000  0.25732643  0.33333333  1
  F  F10  1  0.74267357  0.74267357  0.66666667  1
  F  F11  1  0.74267357  0.00000000  0.50000000  1
  F  F12  1  0.89263245  0.33714483  0.00234595  1
  F  F13  1  0.55548762  0.89263245  0.16901262  1
  F  F14  1  0.33714483  0.44451238  0.83567928  1
  F  F15  1  0.66285517  0.55548762  0.33567928  1
  F  F16  1  0.44451238  0.10736755  0.66901262  1
  F  F17  1  0.55548762  0.66285517  0.99765405  1
  Ag  Ag18  1  0.70909991  0.41819982  0.75000000  1
  Ag  Ag19  1  0.29090009  0.70909991  0.91666667  1
  Ag  Ag20  1  0.41819982  0.70909991  0.58333333  1
  Ag  Ag21  1  0.58180018  0.29090009  0.08333333  1
  Ag  Ag22  1  0.70909991  0.29090009  0.41666667  1
  Ag  Ag23  1  0.29090009  0.58180018  0.25000000  1
