# generated using pymatgen
data_CsEr2Cu3S5
_symmetry_space_group_name_H-M   'P 1'
_cell_length_a   3.94562369
_cell_length_b   7.29792203
_cell_length_c   16.70246845
_cell_angle_alpha   90.00000000
_cell_angle_beta   90.00000000
_cell_angle_gamma   105.68361594
_symmetry_Int_Tables_number   1
_chemical_formula_structural   CsEr2Cu3S5
_chemical_formula_sum   'Cs2 Er4 Cu6 S10'
_cell_volume   463.03911458
_cell_formula_units_Z   2
loop_
 _symmetry_equiv_pos_site_id
 _symmetry_equiv_pos_as_xyz
  1  'x, y, z'
loop_
 _atom_site_type_symbol
 _atom_site_label
 _atom_site_symmetry_multiplicity
 _atom_site_fract_x
 _atom_site_fract_y
 _atom_site_fract_z
 _atom_site_occupancy
  S  S0  1  0.17019632  0.34039263  0.06823491  1
  S  S1  1  0.56277274  0.12554549  0.89153213  1
  S  S2  1  0.56277274  0.12554549  0.60846787  1
  S  S3  1  0.43722726  0.87445451  0.39153213  1
  S  S4  1  0.76836040  0.53672081  0.25000000  1
  S  S5  1  0.23163960  0.46327919  0.75000000  1
  S  S6  1  0.43722726  0.87445451  0.10846787  1
  S  S7  1  0.82980368  0.65960737  0.93176509  1
  S  S8  1  0.82980368  0.65960737  0.56823491  1
  S  S9  1  0.17019632  0.34039263  0.43176509  1
  Cu  Cu10  1  0.41571666  0.83143331  0.53611009  1
  Cu  Cu11  1  0.41571666  0.83143331  0.96388991  1
  Cu  Cu12  1  0.58428334  0.16856669  0.03611009  1
  Cu  Cu13  1  0.65606944  0.31213887  0.75000000  1
  Cu  Cu14  1  0.34393056  0.68786113  0.25000000  1
  Cu  Cu15  1  0.58428334  0.16856669  0.46388991  1
  Cs  Cs16  1  0.06376963  0.12753925  0.25000000  1
  Cs  Cs17  1  0.93623037  0.87246075  0.75000000  1
  Er  Er18  1  0.80794376  0.61588752  0.40823230  1
  Er  Er19  1  0.80794376  0.61588752  0.09176770  1
  Er  Er20  1  0.19205624  0.38411248  0.59176770  1
  Er  Er21  1  0.19205624  0.38411248  0.90823230  1
