# generated using pymatgen
data_SmZrF7
_symmetry_space_group_name_H-M   'P 1'
_cell_length_a   5.84530445
_cell_length_b   9.27109840
_cell_length_c   11.53600091
_cell_angle_alpha   107.42183026
_cell_angle_beta   90.00000000
_cell_angle_gamma   90.00000000
_symmetry_Int_Tables_number   1
_chemical_formula_structural   SmZrF7
_chemical_formula_sum   'Sm4 Zr4 F28'
_cell_volume   596.48494304
_cell_formula_units_Z   4
loop_
 _symmetry_equiv_pos_site_id
 _symmetry_equiv_pos_as_xyz
  1  'x, y, z'
loop_
 _atom_site_type_symbol
 _atom_site_label
 _atom_site_symmetry_multiplicity
 _atom_site_fract_x
 _atom_site_fract_y
 _atom_site_fract_z
 _atom_site_occupancy
  F  F0  1  0.53595526  0.36544635  0.07724325  1
  F  F1  1  0.03595526  0.13455365  0.42275675  1
  F  F2  1  0.46404474  0.63455365  0.92275675  1
  F  F3  1  0.96404474  0.86544635  0.57724325  1
  F  F4  1  0.54147201  0.16985001  0.45196481  1
  F  F5  1  0.04147201  0.33014999  0.04803519  1
  F  F6  1  0.45852799  0.83014999  0.54803519  1
  F  F7  1  0.95852799  0.66985001  0.95196481  1
  F  F8  1  0.23350177  0.61843690  0.14055032  1
  F  F9  1  0.73350177  0.88156310  0.35944968  1
  F  F10  1  0.76649823  0.38156310  0.85944968  1
  F  F11  1  0.26649823  0.11843690  0.64055032  1
  F  F12  1  0.23985329  0.91600362  0.94265146  1
  F  F13  1  0.73985329  0.58399638  0.55734854  1
  F  F14  1  0.76014671  0.08399638  0.05734854  1
  F  F15  1  0.26014671  0.41600362  0.44265146  1
  F  F16  1  0.01216124  0.61889893  0.35249774  1
  F  F17  1  0.51216124  0.88110107  0.14750226  1
  F  F18  1  0.98783876  0.38110107  0.64750226  1
  F  F19  1  0.48783876  0.11889893  0.85249774  1
  F  F20  1  0.96405543  0.08422843  0.82970580  1
  F  F21  1  0.46405543  0.41577157  0.67029420  1
  F  F22  1  0.03594457  0.91577157  0.17029420  1
  F  F23  1  0.53594457  0.58422843  0.32970580  1
  F  F24  1  0.57346475  0.79353122  0.76547435  1
  F  F25  1  0.07346475  0.70646878  0.73452565  1
  F  F26  1  0.42653525  0.20646878  0.23452565  1
  F  F27  1  0.92653525  0.29353122  0.26547435  1
  Zr  Zr28  1  0.25522102  0.27076127  0.54475245  1
  Zr  Zr29  1  0.75522102  0.22923873  0.95524755  1
  Zr  Zr30  1  0.74477898  0.72923873  0.45524755  1
  Zr  Zr31  1  0.24477898  0.77076127  0.04475245  1
  Sm  Sm32  1  0.25670187  0.91958472  0.73343882  1
  Sm  Sm33  1  0.75670187  0.58041528  0.76656118  1
  Sm  Sm34  1  0.74329813  0.08041528  0.26656118  1
  Sm  Sm35  1  0.24329813  0.41958472  0.23343882  1
