# generated using pymatgen
data_K2Cd3Te4
_symmetry_space_group_name_H-M   'P 1'
_cell_length_a   7.44986007
_cell_length_b   11.61040724
_cell_length_c   15.42800886
_cell_angle_alpha   90.00000000
_cell_angle_beta   90.00000000
_cell_angle_gamma   90.00000000
_symmetry_Int_Tables_number   1
_chemical_formula_structural   K2Cd3Te4
_chemical_formula_sum   'K8 Cd12 Te16'
_cell_volume   1334.45965494
_cell_formula_units_Z   4
loop_
 _symmetry_equiv_pos_site_id
 _symmetry_equiv_pos_as_xyz
  1  'x, y, z'
loop_
 _atom_site_type_symbol
 _atom_site_label
 _atom_site_symmetry_multiplicity
 _atom_site_fract_x
 _atom_site_fract_y
 _atom_site_fract_z
 _atom_site_occupancy
  K  K0  1  0.97926959  0.25000000  0.46556160  1
  K  K1  1  0.47926959  0.75000000  0.03443840  1
  K  K2  1  0.52073041  0.25000000  0.96556160  1
  K  K3  1  0.02073041  0.75000000  0.53443840  1
  K  K4  1  0.00000000  0.00000000  0.00000000  1
  K  K5  1  0.50000000  0.00000000  0.50000000  1
  K  K6  1  0.00000000  0.50000000  0.00000000  1
  K  K7  1  0.50000000  0.50000000  0.50000000  1
  Cd  Cd8  1  0.34019870  0.59794420  0.74394296  1
  Cd  Cd9  1  0.73010981  0.75000000  0.29772521  1
  Cd  Cd10  1  0.15980130  0.90205580  0.24394296  1
  Cd  Cd11  1  0.65980130  0.09794420  0.25605704  1
  Cd  Cd12  1  0.34019870  0.90205580  0.74394296  1
  Cd  Cd13  1  0.84019870  0.09794420  0.75605704  1
  Cd  Cd14  1  0.65980130  0.40205580  0.25605704  1
  Cd  Cd15  1  0.15980130  0.59794420  0.24394296  1
  Cd  Cd16  1  0.76989019  0.75000000  0.79772521  1
  Cd  Cd17  1  0.26989019  0.25000000  0.70227479  1
  Cd  Cd18  1  0.23010981  0.25000000  0.20227479  1
  Cd  Cd19  1  0.84019870  0.40205580  0.75605704  1
  Te  Te20  1  0.07461134  0.25000000  0.86411032  1
  Te  Te21  1  0.42538866  0.25000000  0.36411032  1
  Te  Te22  1  0.92538866  0.75000000  0.13588968  1
  Te  Te23  1  0.57461134  0.75000000  0.63588968  1
  Te  Te24  1  0.36850182  0.75000000  0.35466550  1
  Te  Te25  1  0.86850182  0.25000000  0.14533450  1
  Te  Te26  1  0.63149818  0.25000000  0.64533450  1
  Te  Te27  1  0.13149818  0.75000000  0.85466550  1
  Te  Te28  1  0.88575095  0.53288877  0.36608534  1
  Te  Te29  1  0.38575095  0.46711123  0.13391466  1
  Te  Te30  1  0.11424905  0.03288877  0.63391466  1
  Te  Te31  1  0.61424905  0.96711123  0.86608534  1
  Te  Te32  1  0.11424905  0.46711123  0.63391466  1
  Te  Te33  1  0.61424905  0.53288877  0.86608534  1
  Te  Te34  1  0.88575095  0.96711123  0.36608534  1
  Te  Te35  1  0.38575095  0.03288877  0.13391466  1
