# generated using pymatgen
data_HoPS4
_symmetry_space_group_name_H-M   'P 1'
_cell_length_a   10.77405496
_cell_length_b   10.77405496
_cell_length_c   12.19970127
_cell_angle_alpha   116.20412449
_cell_angle_beta   116.20412448
_cell_angle_gamma   90.00000000
_symmetry_Int_Tables_number   1
_chemical_formula_structural   HoPS4
_chemical_formula_sum   'Ho8 P8 S32'
_cell_volume   1106.07239807
_cell_formula_units_Z   8
loop_
 _symmetry_equiv_pos_site_id
 _symmetry_equiv_pos_as_xyz
  1  'x, y, z'
loop_
 _atom_site_type_symbol
 _atom_site_label
 _atom_site_symmetry_multiplicity
 _atom_site_fract_x
 _atom_site_fract_y
 _atom_site_fract_z
 _atom_site_occupancy
  P  P0  1  0.28807380  0.25000000  0.50000000  1
  P  P1  1  0.78807380  0.25000000  0.50000000  1
  P  P2  1  0.75000000  0.78807380  0.00000000  1
  P  P3  1  0.25000000  0.71192620  0.00000000  1
  P  P4  1  0.71192620  0.75000000  0.50000000  1
  P  P5  1  0.21192620  0.75000000  0.50000000  1
  P  P6  1  0.25000000  0.21192620  0.00000000  1
  P  P7  1  0.75000000  0.28807380  0.00000000  1
  S  S8  1  0.08382682  0.61112157  0.99402928  1
  S  S9  1  0.91020246  0.88290770  0.99402928  1
  S  S10  1  0.61112157  0.91020246  0.49402928  1
  S  S11  1  0.88290770  0.08382682  0.49402928  1
  S  S12  1  0.41617318  0.61709230  0.00597072  1
  S  S13  1  0.58979754  0.88887843  0.00597072  1
  S  S14  1  0.88887843  0.41617318  0.50597072  1
  S  S15  1  0.61709230  0.58979754  0.50597072  1
  S  S16  1  0.34419259  0.40453095  0.18051930  1
  S  S17  1  0.27598835  0.34419259  0.68051930  1
  S  S18  1  0.40453095  0.83632671  0.68051930  1
  S  S19  1  0.66367329  0.09546905  0.81948070  1
  S  S20  1  0.15580741  0.22401165  0.81948070  1
  S  S21  1  0.22401165  0.66367329  0.31948070  1
  S  S22  1  0.09546905  0.15580741  0.31948070  1
  S  S23  1  0.83632671  0.27598835  0.18051930  1
  S  S24  1  0.65580741  0.59546905  0.81948070  1
  S  S25  1  0.72401165  0.65580741  0.31948070  1
  S  S26  1  0.59546905  0.16367329  0.31948070  1
  S  S27  1  0.33632671  0.90453095  0.18051930  1
  S  S28  1  0.84419259  0.77598835  0.18051930  1
  S  S29  1  0.77598835  0.33632671  0.68051930  1
  S  S30  1  0.90453095  0.84419259  0.68051930  1
  S  S31  1  0.16367329  0.72401165  0.81948070  1
  S  S32  1  0.08979754  0.11709230  0.00597072  1
  S  S33  1  0.38887843  0.08979754  0.50597072  1
  S  S34  1  0.11709230  0.91617318  0.50597072  1
  S  S35  1  0.58382682  0.38290770  0.99402928  1
  S  S36  1  0.41020246  0.11112157  0.99402928  1
  S  S37  1  0.11112157  0.58382682  0.49402928  1
  S  S38  1  0.38290770  0.41020246  0.49402928  1
  S  S39  1  0.91617318  0.38887843  0.00597072  1
  Ho  Ho40  1  0.87500000  0.12500000  0.75000000  1
  Ho  Ho41  1  0.12500000  0.87500000  0.25000000  1
  Ho  Ho42  1  0.62500000  0.37500000  0.25000000  1
  Ho  Ho43  1  0.37500000  0.62500000  0.75000000  1
  Ho  Ho44  1  0.62500000  0.87500000  0.25000000  1
  Ho  Ho45  1  0.87500000  0.62500000  0.75000000  1
  Ho  Ho46  1  0.37500000  0.12500000  0.75000000  1
  Ho  Ho47  1  0.12500000  0.37500000  0.25000000  1
