# generated using pymatgen
data_NaGdSiO4
_symmetry_space_group_name_H-M   'P 1'
_cell_length_a   5.38917771
_cell_length_b   8.77864799
_cell_length_c   8.77864798
_cell_angle_alpha   84.59373899
_cell_angle_beta   72.12459846
_cell_angle_gamma   72.12459849
_symmetry_Int_Tables_number   1
_chemical_formula_structural   NaGdSiO4
_chemical_formula_sum   'Na4 Gd4 Si4 O16'
_cell_volume   376.18535961
_cell_formula_units_Z   4
loop_
 _symmetry_equiv_pos_site_id
 _symmetry_equiv_pos_as_xyz
  1  'x, y, z'
loop_
 _atom_site_type_symbol
 _atom_site_label
 _atom_site_symmetry_multiplicity
 _atom_site_fract_x
 _atom_site_fract_y
 _atom_site_fract_z
 _atom_site_occupancy
  O  O0  1  0.79710698  0.15243967  0.76713074  1
  O  O1  1  0.56423772  0.23286926  0.15243967  1
  O  O2  1  0.94954665  0.76713074  0.84756033  1
  O  O3  1  0.71667739  0.84756033  0.23286926  1
  O  O4  1  0.20289302  0.84756033  0.23286926  1
  O  O5  1  0.43576228  0.76713074  0.84756033  1
  O  O6  1  0.05045335  0.23286926  0.15243967  1
  O  O7  1  0.28332261  0.15243967  0.76713074  1
  O  O8  1  0.26782489  0.03710573  0.42724450  1
  O  O9  1  0.69506939  0.57275550  0.03710573  1
  O  O10  1  0.30493061  0.42724450  0.96289427  1
  O  O11  1  0.73217511  0.96289427  0.57275550  1
  O  O12  1  0.39634777  0.72484052  0.48246395  1
  O  O13  1  0.87881171  0.51753605  0.72484052  1
  O  O14  1  0.12118829  0.48246395  0.27515948  1
  O  O15  1  0.60365223  0.27515948  0.51753605  1
  Na  Na16  1  0.08660888  0.30636997  0.52041226  1
  Na  Na17  1  0.60702115  0.47958774  0.30636997  1
  Na  Na18  1  0.39297885  0.52041226  0.69363003  1
  Na  Na19  1  0.91339112  0.69363003  0.47958774  1
  Si  Si20  1  0.40166714  0.86050828  0.33615744  1
  Si  Si21  1  0.73782458  0.66384256  0.86050828  1
  Si  Si22  1  0.26217542  0.33615744  0.13949172  1
  Si  Si23  1  0.59833286  0.13949172  0.66384256  1
  Gd  Gd24  1  0.80907414  0.07003542  0.31181630  1
  Gd  Gd25  1  0.12089044  0.68818370  0.07003542  1
  Gd  Gd26  1  0.87910956  0.31181630  0.92996458  1
  Gd  Gd27  1  0.19092586  0.92996458  0.68818370  1
