# generated using pymatgen
data_Tm2S3
_symmetry_space_group_name_H-M   'P 1'
_cell_length_a   10.86485123
_cell_length_b   10.86485123
_cell_length_c   10.86485123
_cell_angle_alpha   109.47122065
_cell_angle_beta   109.47122066
_cell_angle_gamma   109.47122063
_symmetry_Int_Tables_number   1
_chemical_formula_structural   Tm2S3
_chemical_formula_sum   'Tm16 S24'
_cell_volume   987.30073642
_cell_formula_units_Z   8
loop_
 _symmetry_equiv_pos_site_id
 _symmetry_equiv_pos_as_xyz
  1  'x, y, z'
loop_
 _atom_site_type_symbol
 _atom_site_label
 _atom_site_symmetry_multiplicity
 _atom_site_fract_x
 _atom_site_fract_y
 _atom_site_fract_z
 _atom_site_occupancy
  S  S0  1  0.05398189  0.27723642  0.00993108  1
  S  S1  1  0.76730533  0.04405080  0.49006892  1
  S  S2  1  0.73269467  0.22276358  0.27674547  1
  S  S3  1  0.45594920  0.22325453  0.44601811  1
  S  S4  1  0.22325453  0.44601811  0.45594920  1
  S  S5  1  0.00993108  0.05398189  0.27723642  1
  S  S6  1  0.04405080  0.49006892  0.76730533  1
  S  S7  1  0.27674547  0.73269467  0.22276358  1
  S  S8  1  0.27723642  0.00993108  0.05398189  1
  S  S9  1  0.49006892  0.76730533  0.04405080  1
  S  S10  1  0.22276358  0.27674547  0.73269467  1
  S  S11  1  0.44601811  0.45594920  0.22325453  1
  S  S12  1  0.94601811  0.72276358  0.99006892  1
  S  S13  1  0.23269467  0.95594920  0.50993108  1
  S  S14  1  0.26730533  0.77723642  0.72325453  1
  S  S15  1  0.54405080  0.77674547  0.55398189  1
  S  S16  1  0.55398189  0.54405080  0.77674547  1
  S  S17  1  0.77723642  0.72325453  0.26730533  1
  S  S18  1  0.50993108  0.23269467  0.95594920  1
  S  S19  1  0.72276358  0.99006892  0.94601811  1
  S  S20  1  0.72325453  0.26730533  0.77723642  1
  S  S21  1  0.95594920  0.50993108  0.23269467  1
  S  S22  1  0.99006892  0.94601811  0.72276358  1
  S  S23  1  0.77674547  0.55398189  0.54405080  1
  Tm  Tm24  1  0.95169539  0.25000000  0.20169539  1
  Tm  Tm25  1  0.75000000  0.29830461  0.54830461  1
  Tm  Tm26  1  0.20169539  0.95169539  0.25000000  1
  Tm  Tm27  1  0.29830461  0.54830461  0.75000000  1
  Tm  Tm28  1  0.25000000  0.20169539  0.95169539  1
  Tm  Tm29  1  0.54830461  0.75000000  0.29830461  1
  Tm  Tm30  1  0.04830461  0.75000000  0.79830461  1
  Tm  Tm31  1  0.25000000  0.70169539  0.45169539  1
  Tm  Tm32  1  0.79830461  0.04830461  0.75000000  1
  Tm  Tm33  1  0.70169539  0.45169539  0.25000000  1
  Tm  Tm34  1  0.75000000  0.79830461  0.04830461  1
  Tm  Tm35  1  0.45169539  0.25000000  0.70169539  1
  Tm  Tm36  1  0.00000000  0.50000000  0.00000000  1
  Tm  Tm37  1  0.50000000  0.00000000  0.00000000  1
  Tm  Tm38  1  0.00000000  0.00000000  0.50000000  1
  Tm  Tm39  1  0.50000000  0.50000000  0.50000000  1
