# generated using pymatgen
data_NpPO4F
_symmetry_space_group_name_H-M   'P 1'
_cell_length_a   6.41705795
_cell_length_b   6.99804946
_cell_length_c   8.67139343
_cell_angle_alpha   90.00000000
_cell_angle_beta   90.00000000
_cell_angle_gamma   90.00000000
_symmetry_Int_Tables_number   1
_chemical_formula_structural   NpPO4F
_chemical_formula_sum   'Np4 P4 O16 F4'
_cell_volume   389.40530156
_cell_formula_units_Z   4
loop_
 _symmetry_equiv_pos_site_id
 _symmetry_equiv_pos_as_xyz
  1  'x, y, z'
loop_
 _atom_site_type_symbol
 _atom_site_label
 _atom_site_symmetry_multiplicity
 _atom_site_fract_x
 _atom_site_fract_y
 _atom_site_fract_z
 _atom_site_occupancy
  O  O0  1  0.10459844  0.25000000  0.73279437  1
  O  O1  1  0.60459844  0.75000000  0.76720563  1
  O  O2  1  0.89540156  0.75000000  0.26720563  1
  O  O3  1  0.39540156  0.25000000  0.23279437  1
  O  O4  1  0.67421836  0.57562536  0.06703307  1
  O  O5  1  0.17421836  0.42437464  0.43296693  1
  O  O6  1  0.32578164  0.07562536  0.93296693  1
  O  O7  1  0.82578164  0.92437464  0.56703307  1
  O  O8  1  0.32578164  0.42437464  0.93296693  1
  O  O9  1  0.82578164  0.57562536  0.56703307  1
  O  O10  1  0.67421836  0.92437464  0.06703307  1
  O  O11  1  0.17421836  0.07562536  0.43296693  1
  O  O12  1  0.50613264  0.25000000  0.51257846  1
  O  O13  1  0.00613264  0.75000000  0.98742154  1
  O  O14  1  0.49386736  0.75000000  0.48742154  1
  O  O15  1  0.99386736  0.25000000  0.01257846  1
  F  F16  1  0.69221588  0.25000000  0.79410049  1
  F  F17  1  0.19221588  0.75000000  0.70589951  1
  F  F18  1  0.30778412  0.75000000  0.20589951  1
  F  F19  1  0.80778412  0.25000000  0.29410049  1
  P  P20  1  0.17891180  0.25000000  0.90045604  1
  P  P21  1  0.67891180  0.75000000  0.59954396  1
  P  P22  1  0.82108820  0.75000000  0.09954396  1
  P  P23  1  0.32108820  0.25000000  0.40045604  1
  Np  Np24  1  0.65126908  0.25000000  0.05670068  1
  Np  Np25  1  0.15126908  0.75000000  0.44329932  1
  Np  Np26  1  0.34873092  0.75000000  0.94329932  1
  Np  Np27  1  0.84873092  0.25000000  0.55670068  1
