# generated using pymatgen
data_Rb2Ti(Si2O5)3
_symmetry_space_group_name_H-M   'P 1'
_cell_length_a   7.49267030
_cell_length_b   7.47886816
_cell_length_c   15.37896457
_cell_angle_alpha   103.19407885
_cell_angle_beta   90.00000000
_cell_angle_gamma   120.06106695
_symmetry_Int_Tables_number   1
_chemical_formula_structural   Rb2Ti(Si2O5)3
_chemical_formula_sum   'Rb4 Ti2 Si12 O30'
_cell_volume   719.46422247
_cell_formula_units_Z   2
loop_
 _symmetry_equiv_pos_site_id
 _symmetry_equiv_pos_as_xyz
  1  'x, y, z'
loop_
 _atom_site_type_symbol
 _atom_site_label
 _atom_site_symmetry_multiplicity
 _atom_site_fract_x
 _atom_site_fract_y
 _atom_site_fract_z
 _atom_site_occupancy
  O  O0  1  0.95686199  0.39075872  0.97571064  1
  O  O1  1  0.43389673  0.39075872  0.47571064  1
  O  O2  1  0.70380955  0.19167411  0.81452567  1
  O  O3  1  0.48786455  0.19167411  0.31452567  1
  O  O4  1  0.03068646  0.12044022  0.84359400  1
  O  O5  1  0.08975376  0.12044022  0.34359400  1
  O  O6  1  0.54382093  0.05555249  0.96284923  1
  O  O7  1  0.51173156  0.05555249  0.46284923  1
  O  O8  1  0.76546606  0.96224892  0.53384492  1
  O  O9  1  0.19678287  0.96224892  0.03384492  1
  O  O10  1  0.61635569  0.78997579  0.82896864  1
  O  O11  1  0.17362010  0.78997579  0.32896864  1
  O  O12  1  0.88677501  0.73206710  0.72711610  1
  O  O13  1  0.84529208  0.73206710  0.22711610  1
  O  O14  1  0.36038167  0.71245309  0.52926835  1
  O  O15  1  0.35207142  0.71245309  0.02926835  1
  O  O16  1  0.50673245  0.60366682  0.65194728  1
  O  O17  1  0.09693437  0.60366682  0.15194728  1
  O  O18  1  0.86581547  0.98967445  0.99798697  1
  O  O19  1  0.12385897  0.98967445  0.49798697  1
  O  O20  1  0.70919063  0.99856551  0.26012145  1
  O  O21  1  0.28937488  0.99856551  0.76012145  1
  O  O22  1  0.54583011  0.10946019  0.14122652  1
  O  O23  1  0.56363008  0.10946019  0.64122652  1
  O  O24  1  0.03493029  0.09153188  0.16973525  1
  O  O25  1  0.05660159  0.09153188  0.66973525  1
  O  O26  1  0.11570506  0.35074647  0.56935885  1
  O  O27  1  0.23504141  0.35074647  0.06935885  1
  O  O28  1  0.85682453  0.40526102  0.26681496  1
  O  O29  1  0.54843649  0.40526102  0.76681496  1
  Si  Si30  1  0.54751526  0.96419016  0.54163248  1
  Si  Si31  1  0.41667490  0.96419016  0.04163248  1
  Si  Si32  1  0.64020128  0.63603275  0.74384048  1
  Si  Si33  1  0.99583147  0.63603275  0.24384048  1
  Si  Si34  1  0.36018957  0.50992356  0.55499803  1
  Si  Si35  1  0.14973400  0.50992356  0.05499803  1
  Si  Si36  1  0.52866929  0.16957201  0.74586825  1
  Si  Si37  1  0.64090272  0.16957201  0.24586825  1
  Si  Si38  1  0.07703964  0.09354331  0.06542797  1
  Si  Si39  1  0.01650368  0.09354331  0.56542797  1
  Si  Si40  1  0.06641744  0.99250980  0.75287241  1
  Si  Si41  1  0.92609235  0.99250980  0.25287241  1
  Ti  Ti42  1  0.78195994  0.08432999  0.90354928  1
  Ti  Ti43  1  0.30237005  0.08432999  0.40354928  1
  Rb  Rb44  1  0.41354085  0.55552188  0.31088730  1
  Rb  Rb45  1  0.14198104  0.55552188  0.81088730  1
  Rb  Rb46  1  0.63443412  0.51629977  0.97895496  1
  Rb  Rb47  1  0.88186565  0.51629977  0.47895496  1
