# generated using pymatgen
data_NaGdGeO4
_symmetry_space_group_name_H-M   'P 1'
_cell_length_a   5.36062359
_cell_length_b   6.60326498
_cell_length_c   11.63851950
_cell_angle_alpha   90.00000000
_cell_angle_beta   90.00000000
_cell_angle_gamma   90.00000000
_symmetry_Int_Tables_number   1
_chemical_formula_structural   NaGdGeO4
_chemical_formula_sum   'Na4 Gd4 Ge4 O16'
_cell_volume   411.97586761
_cell_formula_units_Z   4
loop_
 _symmetry_equiv_pos_site_id
 _symmetry_equiv_pos_as_xyz
  1  'x, y, z'
loop_
 _atom_site_type_symbol
 _atom_site_label
 _atom_site_symmetry_multiplicity
 _atom_site_fract_x
 _atom_site_fract_y
 _atom_site_fract_z
 _atom_site_occupancy
  O  O0  1  0.79197774  0.45571352  0.67221746  1
  O  O1  1  0.29197774  0.54428648  0.82778254  1
  O  O2  1  0.20802226  0.95571352  0.32778254  1
  O  O3  1  0.70802226  0.04428648  0.17221746  1
  O  O4  1  0.20802226  0.54428648  0.32778254  1
  O  O5  1  0.70802226  0.45571352  0.17221746  1
  O  O6  1  0.79197774  0.04428648  0.67221746  1
  O  O7  1  0.29197774  0.95571352  0.82778254  1
  O  O8  1  0.17781754  0.75000000  0.54461924  1
  O  O9  1  0.67781754  0.25000000  0.95538076  1
  O  O10  1  0.82218246  0.25000000  0.45538076  1
  O  O11  1  0.32218246  0.75000000  0.04461924  1
  O  O12  1  0.73162555  0.75000000  0.39064561  1
  O  O13  1  0.23162555  0.25000000  0.10935439  1
  O  O14  1  0.26837445  0.25000000  0.60935439  1
  O  O15  1  0.76837445  0.75000000  0.89064561  1
  Na  Na16  1  0.00000000  0.00000000  0.00000000  1
  Na  Na17  1  0.00000000  0.50000000  0.00000000  1
  Na  Na18  1  0.50000000  0.00000000  0.50000000  1
  Na  Na19  1  0.50000000  0.50000000  0.50000000  1
  Ge  Ge20  1  0.94327314  0.25000000  0.59642770  1
  Ge  Ge21  1  0.55672686  0.25000000  0.09642770  1
  Ge  Ge22  1  0.05672686  0.75000000  0.40357230  1
  Ge  Ge23  1  0.44327314  0.75000000  0.90357230  1
  Gd  Gd24  1  0.00211584  0.75000000  0.72174220  1
  Gd  Gd25  1  0.99788416  0.25000000  0.27825780  1
  Gd  Gd26  1  0.49788416  0.75000000  0.22174220  1
  Gd  Gd27  1  0.50211584  0.25000000  0.77825780  1
