# generated using pymatgen
data_Na2Si2Se5
_symmetry_space_group_name_H-M   'P 1'
_cell_length_a   9.55505444
_cell_length_b   9.55505444
_cell_length_c   11.11320979
_cell_angle_alpha   90.00000000
_cell_angle_beta   90.00000000
_cell_angle_gamma   89.36683094
_symmetry_Int_Tables_number   1
_chemical_formula_structural   Na2Si2Se5
_chemical_formula_sum   'Na8 Si8 Se20'
_cell_volume   1014.56371390
_cell_formula_units_Z   4
loop_
 _symmetry_equiv_pos_site_id
 _symmetry_equiv_pos_as_xyz
  1  'x, y, z'
loop_
 _atom_site_type_symbol
 _atom_site_label
 _atom_site_symmetry_multiplicity
 _atom_site_fract_x
 _atom_site_fract_y
 _atom_site_fract_z
 _atom_site_occupancy
  Na  Na0  1  0.08145716  0.42374182  0.75000000  1
  Na  Na1  1  0.91854284  0.57625818  0.25000000  1
  Na  Na2  1  0.42374182  0.08145716  0.75000000  1
  Na  Na3  1  0.57625818  0.91854284  0.25000000  1
  Na  Na4  1  0.14823648  0.85176352  0.50000000  1
  Na  Na5  1  0.85176352  0.14823648  0.00000000  1
  Na  Na6  1  0.85176352  0.14823648  0.50000000  1
  Na  Na7  1  0.14823648  0.85176352  0.00000000  1
  Si  Si8  1  0.68831438  0.41649162  0.75000000  1
  Si  Si9  1  0.31168562  0.58350838  0.25000000  1
  Si  Si10  1  0.41649162  0.68831438  0.75000000  1
  Si  Si11  1  0.58350838  0.31168562  0.25000000  1
  Si  Si12  1  0.74625947  0.74625947  0.91575149  1
  Si  Si13  1  0.25374053  0.25374053  0.41575149  1
  Si  Si14  1  0.74625947  0.74625947  0.58424851  1
  Si  Si15  1  0.25374053  0.25374053  0.08424851  1
  Se  Se16  1  0.81297806  0.26909524  0.25000000  1
  Se  Se17  1  0.18702194  0.73090476  0.75000000  1
  Se  Se18  1  0.26909524  0.81297806  0.25000000  1
  Se  Se19  1  0.73090476  0.18702194  0.75000000  1
  Se  Se20  1  0.84067579  0.84067579  0.08040643  1
  Se  Se21  1  0.15932421  0.15932421  0.58040643  1
  Se  Se22  1  0.84067579  0.84067579  0.41959357  1
  Se  Se23  1  0.15932421  0.15932421  0.91959357  1
  Se  Se24  1  0.84845135  0.84845135  0.75000000  1
  Se  Se25  1  0.15154865  0.15154865  0.25000000  1
  Se  Se26  1  0.20572356  0.49247738  0.07936996  1
  Se  Se27  1  0.79427644  0.50752262  0.57936996  1
  Se  Se28  1  0.49247738  0.20572356  0.42063004  1
  Se  Se29  1  0.50752262  0.79427644  0.92063004  1
  Se  Se30  1  0.79427644  0.50752262  0.92063004  1
  Se  Se31  1  0.20572356  0.49247738  0.42063004  1
  Se  Se32  1  0.50752262  0.79427644  0.57936996  1
  Se  Se33  1  0.49247738  0.20572356  0.07936996  1
  Se  Se34  1  0.45023996  0.45023996  0.75000000  1
  Se  Se35  1  0.54976004  0.54976004  0.25000000  1
