# generated using pymatgen
data_Ga2AsRh5
_symmetry_space_group_name_H-M   'P 1'
_cell_length_a   4.07173660
_cell_length_b   5.51327339
_cell_length_c   10.29314944
_cell_angle_alpha   90.00000000
_cell_angle_beta   90.00000000
_cell_angle_gamma   90.00000000
_symmetry_Int_Tables_number   1
_chemical_formula_structural   Ga2AsRh5
_chemical_formula_sum   'Ga4 As2 Rh10'
_cell_volume   231.06676413
_cell_formula_units_Z   2
loop_
 _symmetry_equiv_pos_site_id
 _symmetry_equiv_pos_as_xyz
  1  'x, y, z'
loop_
 _atom_site_type_symbol
 _atom_site_label
 _atom_site_symmetry_multiplicity
 _atom_site_fract_x
 _atom_site_fract_y
 _atom_site_fract_z
 _atom_site_occupancy
  Ga  Ga0  1  0.50000000  0.38534755  0.35060646  1
  Ga  Ga1  1  0.50000000  0.61465245  0.64939354  1
  Ga  Ga2  1  0.50000000  0.11465245  0.85060646  1
  Ga  Ga3  1  0.50000000  0.88534755  0.14939354  1
  As  As4  1  0.00000000  0.00000000  0.50000000  1
  As  As5  1  0.00000000  0.50000000  0.00000000  1
  Rh  Rh6  1  0.50000000  0.33213614  0.10302033  1
  Rh  Rh7  1  0.50000000  0.66786386  0.89697967  1
  Rh  Rh8  1  0.50000000  0.83213614  0.39697967  1
  Rh  Rh9  1  0.50000000  0.16786386  0.60302033  1
  Rh  Rh10  1  0.00000000  0.86253000  0.72460938  1
  Rh  Rh11  1  0.00000000  0.13747000  0.27539062  1
  Rh  Rh12  1  0.00000000  0.36253000  0.77539062  1
  Rh  Rh13  1  0.00000000  0.63747000  0.22460938  1
  Rh  Rh14  1  0.00000000  0.50000000  0.50000000  1
  Rh  Rh15  1  0.00000000  0.00000000  0.00000000  1
