# generated using pymatgen
data_CaZn11
_symmetry_space_group_name_H-M   'P 1'
_cell_length_a   6.83849060
_cell_length_b   8.30506358
_cell_length_c   8.30506358
_cell_angle_alpha   80.24113973
_cell_angle_beta   65.68794580
_cell_angle_gamma   65.68794580
_symmetry_Int_Tables_number   1
_chemical_formula_structural   CaZn11
_chemical_formula_sum   'Ca2 Zn22'
_cell_volume   391.72818102
_cell_formula_units_Z   2
loop_
 _symmetry_equiv_pos_site_id
 _symmetry_equiv_pos_as_xyz
  1  'x, y, z'
loop_
 _atom_site_type_symbol
 _atom_site_label
 _atom_site_symmetry_multiplicity
 _atom_site_fract_x
 _atom_site_fract_y
 _atom_site_fract_z
 _atom_site_occupancy
  Ca  Ca0  1  0.37500000  0.25000000  0.75000000  1
  Ca  Ca1  1  0.62500000  0.75000000  0.25000000  1
  Zn  Zn2  1  0.27732825  0.92320073  0.66600652  1
  Zn  Zn3  1  0.44333477  0.83399348  0.92320073  1
  Zn  Zn4  1  0.20052898  0.66600652  0.57679927  1
  Zn  Zn5  1  0.86653550  0.57679927  0.83399348  1
  Zn  Zn6  1  0.79947102  0.92320073  0.83399348  1
  Zn  Zn7  1  0.55666523  0.57679927  0.66600652  1
  Zn  Zn8  1  0.72267175  0.83399348  0.57679927  1
  Zn  Zn9  1  0.13346450  0.66600652  0.92320073  1
  Zn  Zn10  1  0.72267175  0.07679927  0.33399348  1
  Zn  Zn11  1  0.55666523  0.16600652  0.07679927  1
  Zn  Zn12  1  0.79947102  0.33399348  0.42320073  1
  Zn  Zn13  1  0.13346450  0.42320073  0.16600652  1
  Zn  Zn14  1  0.20052898  0.07679927  0.16600652  1
  Zn  Zn15  1  0.44333477  0.42320073  0.33399348  1
  Zn  Zn16  1  0.27732825  0.16600652  0.42320073  1
  Zn  Zn17  1  0.86653550  0.33399348  0.07679927  1
  Zn  Zn18  1  0.00000000  0.00000000  0.00000000  1
  Zn  Zn19  1  0.50000000  0.50000000  0.00000000  1
  Zn  Zn20  1  0.00000000  0.00000000  0.50000000  1
  Zn  Zn21  1  0.00000000  0.50000000  0.50000000  1
  Zn  Zn22  1  0.12500000  0.75000000  0.25000000  1
  Zn  Zn23  1  0.87500000  0.25000000  0.75000000  1
