# generated using pymatgen
data_LiCu4(PO4)3
_symmetry_space_group_name_H-M   'P 1'
_cell_length_a   6.20955244
_cell_length_b   15.96557293
_cell_length_c   9.64043566
_cell_angle_alpha   90.00000000
_cell_angle_beta   90.00000000
_cell_angle_gamma   90.00000000
_symmetry_Int_Tables_number   1
_chemical_formula_structural   LiCu4(PO4)3
_chemical_formula_sum   'Li4 Cu16 P12 O48'
_cell_volume   955.74375192
_cell_formula_units_Z   4
loop_
 _symmetry_equiv_pos_site_id
 _symmetry_equiv_pos_as_xyz
  1  'x, y, z'
loop_
 _atom_site_type_symbol
 _atom_site_label
 _atom_site_symmetry_multiplicity
 _atom_site_fract_x
 _atom_site_fract_y
 _atom_site_fract_z
 _atom_site_occupancy
  Li  Li0  1  0.00000000  0.46968806  0.27720065  1
  Li  Li1  1  0.00000000  0.53031194  0.72279935  1
  Li  Li2  1  0.50000000  0.03031194  0.77720065  1
  Li  Li3  1  0.50000000  0.96968806  0.22279935  1
  Cu  Cu4  1  0.00000000  0.09554282  0.53997242  1
  Cu  Cu5  1  0.00000000  0.15113177  0.97235565  1
  Cu  Cu6  1  0.00000000  0.84886823  0.02764435  1
  Cu  Cu7  1  0.00000000  0.90445718  0.46002758  1
  Cu  Cu8  1  0.24906689  0.30389845  0.74908064  1
  Cu  Cu9  1  0.24906689  0.69610155  0.25091936  1
  Cu  Cu10  1  0.25093311  0.19610155  0.24908064  1
  Cu  Cu11  1  0.25093311  0.80389845  0.75091936  1
  Cu  Cu12  1  0.50000000  0.59554282  0.96002758  1
  Cu  Cu13  1  0.50000000  0.40445718  0.03997242  1
  Cu  Cu14  1  0.50000000  0.65113177  0.52764435  1
  Cu  Cu15  1  0.50000000  0.34886823  0.47235565  1
  Cu  Cu16  1  0.74906689  0.80389845  0.75091936  1
  Cu  Cu17  1  0.74906689  0.19610155  0.24908064  1
  Cu  Cu18  1  0.75093311  0.30389845  0.74908064  1
  Cu  Cu19  1  0.75093311  0.69610155  0.25091936  1
  P  P20  1  0.00000000  0.02872676  0.20932406  1
  P  P21  1  0.00000000  0.33990122  0.04557097  1
  P  P22  1  0.00000000  0.28429533  0.45982141  1
  P  P23  1  0.00000000  0.71570467  0.54017859  1
  P  P24  1  0.00000000  0.66009878  0.95442903  1
  P  P25  1  0.00000000  0.97127324  0.79067594  1
  P  P26  1  0.50000000  0.21570467  0.95982141  1
  P  P27  1  0.50000000  0.52872676  0.29067594  1
  P  P28  1  0.50000000  0.16009878  0.54557097  1
  P  P29  1  0.50000000  0.47127324  0.70932406  1
  P  P30  1  0.50000000  0.78429533  0.04017859  1
  P  P31  1  0.50000000  0.83990122  0.45442903  1
  O  O32  1  0.00000000  0.01366759  0.36918166  1
  O  O33  1  0.00000000  0.24553176  0.10878592  1
  O  O34  1  0.00000000  0.19078209  0.39431214  1
  O  O35  1  0.00000000  0.05502703  0.86206626  1
  O  O36  1  0.00000000  0.27455413  0.62066650  1
  O  O37  1  0.00000000  0.67057911  0.11530690  1
  O  O38  1  0.00000000  0.32942089  0.88469310  1
  O  O39  1  0.00000000  0.72544587  0.37933350  1
  O  O40  1  0.00000000  0.94497297  0.13793374  1
  O  O41  1  0.00000000  0.80921791  0.60568786  1
  O  O42  1  0.00000000  0.75446824  0.89121408  1
  O  O43  1  0.00000000  0.98633241  0.63081834  1
  O  O44  1  0.20739863  0.07860934  0.17028282  1
  O  O45  1  0.20739863  0.92139066  0.82971718  1
  O  O46  1  0.19853459  0.38641061  0.09899198  1
  O  O47  1  0.19853459  0.61358939  0.90100802  1
  O  O48  1  0.20262963  0.32544719  0.40130051  1
  O  O49  1  0.20262963  0.67455281  0.59869949  1
  O  O50  1  0.29737037  0.17455281  0.90130051  1
  O  O51  1  0.29737037  0.82544719  0.09869949  1
  O  O52  1  0.30146541  0.88641061  0.40100802  1
  O  O53  1  0.30146541  0.11358939  0.59899198  1
  O  O54  1  0.29260137  0.57860934  0.32971718  1
  O  O55  1  0.29260137  0.42139066  0.67028282  1
  O  O56  1  0.50000000  0.17057911  0.38469310  1
  O  O57  1  0.50000000  0.44497297  0.36206626  1
  O  O58  1  0.50000000  0.51366759  0.13081834  1
  O  O59  1  0.50000000  0.22544587  0.12066650  1
  O  O60  1  0.50000000  0.55502703  0.63793374  1
  O  O61  1  0.50000000  0.48633241  0.86918166  1
  O  O62  1  0.50000000  0.69078209  0.10568786  1
  O  O63  1  0.50000000  0.25446824  0.60878592  1
  O  O64  1  0.50000000  0.30921791  0.89431214  1
  O  O65  1  0.50000000  0.77455413  0.87933350  1
  O  O66  1  0.50000000  0.82942089  0.61530690  1
  O  O67  1  0.50000000  0.74553176  0.39121408  1
  O  O68  1  0.70739863  0.42139066  0.67028282  1
  O  O69  1  0.70739863  0.57860934  0.32971718  1
  O  O70  1  0.69853459  0.11358939  0.59899198  1
  O  O71  1  0.69853459  0.88641061  0.40100802  1
  O  O72  1  0.70262963  0.17455281  0.90130051  1
  O  O73  1  0.70262963  0.82544719  0.09869949  1
  O  O74  1  0.79737037  0.32544719  0.40130051  1
  O  O75  1  0.79737037  0.67455281  0.59869949  1
  O  O76  1  0.80146541  0.38641061  0.09899198  1
  O  O77  1  0.80146541  0.61358939  0.90100802  1
  O  O78  1  0.79260137  0.07860934  0.17028282  1
  O  O79  1  0.79260137  0.92139066  0.82971718  1
