# generated using pymatgen
data_Rb2Cd3S4
_symmetry_space_group_name_H-M   'P 1'
_cell_length_a   6.72472906
_cell_length_b   10.76183900
_cell_length_c   14.46681647
_cell_angle_alpha   90.00000000
_cell_angle_beta   90.00000000
_cell_angle_gamma   90.00000000
_symmetry_Int_Tables_number   1
_chemical_formula_structural   Rb2Cd3S4
_chemical_formula_sum   'Rb8 Cd12 S16'
_cell_volume   1046.97003916
_cell_formula_units_Z   4
loop_
 _symmetry_equiv_pos_site_id
 _symmetry_equiv_pos_as_xyz
  1  'x, y, z'
loop_
 _atom_site_type_symbol
 _atom_site_label
 _atom_site_symmetry_multiplicity
 _atom_site_fract_x
 _atom_site_fract_y
 _atom_site_fract_z
 _atom_site_occupancy
  S  S0  1  0.60805164  0.96204064  0.85863730  1
  S  S1  1  0.10805164  0.03795936  0.64136270  1
  S  S2  1  0.39194836  0.46204064  0.14136270  1
  S  S3  1  0.89194836  0.53795936  0.35863730  1
  S  S4  1  0.39194836  0.03795936  0.14136270  1
  S  S5  1  0.89194836  0.96204064  0.35863730  1
  S  S6  1  0.60805164  0.53795936  0.85863730  1
  S  S7  1  0.10805164  0.46204064  0.64136270  1
  S  S8  1  0.95601952  0.75000000  0.14404973  1
  S  S9  1  0.45601952  0.25000000  0.35595027  1
  S  S10  1  0.04398048  0.25000000  0.85595027  1
  S  S11  1  0.54398048  0.75000000  0.64404973  1
  S  S12  1  0.88347168  0.25000000  0.15394064  1
  S  S13  1  0.61652832  0.25000000  0.65394064  1
  S  S14  1  0.11652832  0.75000000  0.84605936  1
  S  S15  1  0.38347168  0.75000000  0.34605936  1
  Rb  Rb16  1  0.02147752  0.75000000  0.53431619  1
  Rb  Rb17  1  0.52147752  0.25000000  0.96568381  1
  Rb  Rb18  1  0.97852248  0.25000000  0.46568381  1
  Rb  Rb19  1  0.47852248  0.75000000  0.03431619  1
  Rb  Rb20  1  0.00000000  0.00000000  0.00000000  1
  Rb  Rb21  1  0.50000000  0.50000000  0.50000000  1
  Rb  Rb22  1  0.00000000  0.50000000  0.00000000  1
  Rb  Rb23  1  0.50000000  0.00000000  0.50000000  1
  Cd  Cd24  1  0.32252486  0.90605713  0.74705292  1
  Cd  Cd25  1  0.82252486  0.09394287  0.75294708  1
  Cd  Cd26  1  0.67747514  0.40605713  0.25294708  1
  Cd  Cd27  1  0.17747514  0.59394287  0.24705292  1
  Cd  Cd28  1  0.67747514  0.09394287  0.25294708  1
  Cd  Cd29  1  0.17747514  0.90605713  0.24705292  1
  Cd  Cd30  1  0.32252486  0.59394287  0.74705292  1
  Cd  Cd31  1  0.82252486  0.40605713  0.75294708  1
  Cd  Cd32  1  0.74051715  0.75000000  0.29271633  1
  Cd  Cd33  1  0.24051715  0.25000000  0.20728367  1
  Cd  Cd34  1  0.25948285  0.25000000  0.70728367  1
  Cd  Cd35  1  0.75948285  0.75000000  0.79271633  1
