# generated using pymatgen
data_Na2Ge2S5
_symmetry_space_group_name_H-M   'P 1'
_cell_length_a   9.24518499
_cell_length_b   9.24518500
_cell_length_c   10.71704155
_cell_angle_alpha   90.00000000
_cell_angle_beta   90.00000000
_cell_angle_gamma   90.97468584
_symmetry_Int_Tables_number   1
_chemical_formula_structural   Na2Ge2S5
_chemical_formula_sum   'Na8 Ge8 S20'
_cell_volume   915.88992756
_cell_formula_units_Z   4
loop_
 _symmetry_equiv_pos_site_id
 _symmetry_equiv_pos_as_xyz
  1  'x, y, z'
loop_
 _atom_site_type_symbol
 _atom_site_label
 _atom_site_symmetry_multiplicity
 _atom_site_fract_x
 _atom_site_fract_y
 _atom_site_fract_z
 _atom_site_occupancy
  Na  Na0  1  0.90840056  0.42064855  0.75000000  1
  Na  Na1  1  0.09159944  0.57935145  0.25000000  1
  Na  Na2  1  0.42064855  0.90840056  0.25000000  1
  Na  Na3  1  0.57935145  0.09159944  0.75000000  1
  Na  Na4  1  0.14710863  0.14710863  0.50000000  1
  Na  Na5  1  0.85289137  0.85289137  0.00000000  1
  Na  Na6  1  0.85289137  0.85289137  0.50000000  1
  Na  Na7  1  0.14710863  0.14710863  0.00000000  1
  S  S8  1  0.55297450  0.44702550  0.75000000  1
  S  S9  1  0.44702550  0.55297450  0.25000000  1
  S  S10  1  0.49619338  0.79479834  0.92103297  1
  S  S11  1  0.50380662  0.20520166  0.42103297  1
  S  S12  1  0.79479834  0.49619338  0.07896703  1
  S  S13  1  0.20520166  0.50380662  0.57896703  1
  S  S14  1  0.50380662  0.20520166  0.07896703  1
  S  S15  1  0.49619338  0.79479834  0.57896703  1
  S  S16  1  0.20520166  0.50380662  0.92103297  1
  S  S17  1  0.79479834  0.49619338  0.42103297  1
  S  S18  1  0.15379756  0.84620244  0.75000000  1
  S  S19  1  0.84620244  0.15379756  0.25000000  1
  S  S20  1  0.15880484  0.84119516  0.08254679  1
  S  S21  1  0.84119516  0.15880484  0.58254679  1
  S  S22  1  0.84119516  0.15880484  0.91745321  1
  S  S23  1  0.15880484  0.84119516  0.41745321  1
  S  S24  1  0.82090408  0.72917873  0.75000000  1
  S  S25  1  0.17909592  0.27082127  0.25000000  1
  S  S26  1  0.72917873  0.82090408  0.25000000  1
  S  S27  1  0.27082127  0.17909592  0.75000000  1
  Ge  Ge28  1  0.31292672  0.40904533  0.75000000  1
  Ge  Ge29  1  0.68707328  0.59095467  0.25000000  1
  Ge  Ge30  1  0.40904533  0.31292672  0.25000000  1
  Ge  Ge31  1  0.59095467  0.68707328  0.75000000  1
  Ge  Ge32  1  0.25515576  0.74484424  0.58148529  1
  Ge  Ge33  1  0.74484424  0.25515576  0.08148529  1
  Ge  Ge34  1  0.74484424  0.25515576  0.41851471  1
  Ge  Ge35  1  0.25515576  0.74484424  0.91851471  1
