# generated using pymatgen
data_LaSnF7
_symmetry_space_group_name_H-M   'P 1'
_cell_length_a   5.87197396
_cell_length_b   9.39116512
_cell_length_c   11.67926363
_cell_angle_alpha   107.40603751
_cell_angle_beta   90.00000000
_cell_angle_gamma   90.00000000
_symmetry_Int_Tables_number   1
_chemical_formula_structural   LaSnF7
_chemical_formula_sum   'La4 Sn4 F28'
_cell_volume   614.55744211
_cell_formula_units_Z   4
loop_
 _symmetry_equiv_pos_site_id
 _symmetry_equiv_pos_as_xyz
  1  'x, y, z'
loop_
 _atom_site_type_symbol
 _atom_site_label
 _atom_site_symmetry_multiplicity
 _atom_site_fract_x
 _atom_site_fract_y
 _atom_site_fract_z
 _atom_site_occupancy
  F  F0  1  0.03728305  0.82847629  0.54360307  1
  F  F1  1  0.53728305  0.67152371  0.95639693  1
  F  F2  1  0.96271695  0.17152371  0.45639693  1
  F  F3  1  0.46271695  0.32847629  0.04360307  1
  F  F4  1  0.94725276  0.36887824  0.07821981  1
  F  F5  1  0.44725276  0.13112176  0.42178019  1
  F  F6  1  0.05274724  0.63112176  0.92178019  1
  F  F7  1  0.55274724  0.86887824  0.57821981  1
  F  F8  1  0.26612910  0.62560752  0.13905494  1
  F  F9  1  0.76612910  0.87439248  0.36094506  1
  F  F10  1  0.73387090  0.37439248  0.86094506  1
  F  F11  1  0.23387090  0.12560752  0.63905494  1
  F  F12  1  0.26046242  0.91445751  0.94811211  1
  F  F13  1  0.76046242  0.58554249  0.55188789  1
  F  F14  1  0.73953758  0.08554249  0.05188789  1
  F  F15  1  0.23953758  0.41445751  0.44811211  1
  F  F16  1  0.95254843  0.58986040  0.33296751  1
  F  F17  1  0.45254843  0.91013960  0.16703249  1
  F  F18  1  0.04745157  0.41013960  0.66703249  1
  F  F19  1  0.54745157  0.08986040  0.83296751  1
  F  F20  1  0.98419757  0.86866973  0.13721865  1
  F  F21  1  0.48419757  0.63133027  0.36278135  1
  F  F22  1  0.01580243  0.13133027  0.86278135  1
  F  F23  1  0.51580243  0.36866973  0.63721865  1
  F  F24  1  0.91460440  0.79845029  0.76735473  1
  F  F25  1  0.41460440  0.70154971  0.73264527  1
  F  F26  1  0.08539560  0.20154971  0.23264527  1
  F  F27  1  0.58539560  0.29845029  0.26735473  1
  Sn  Sn28  1  0.75562834  0.73087011  0.45712607  1
  Sn  Sn29  1  0.25562834  0.76912989  0.04287393  1
  Sn  Sn30  1  0.24437166  0.26912989  0.54287393  1
  Sn  Sn31  1  0.74437166  0.23087011  0.95712607  1
  La  La32  1  0.24186530  0.92385748  0.73491826  1
  La  La33  1  0.74186530  0.57614252  0.76508174  1
  La  La34  1  0.75813470  0.07614252  0.26508174  1
  La  La35  1  0.25813470  0.42385748  0.23491826  1
