# generated using pymatgen
data_Ti4Si7Ni4
_symmetry_space_group_name_H-M   'P 1'
_cell_length_a   4.95091828
_cell_length_b   9.22902437
_cell_length_c   9.22902437
_cell_angle_alpha   85.87429720
_cell_angle_beta   74.44130249
_cell_angle_gamma   74.44130247
_symmetry_Int_Tables_number   1
_chemical_formula_structural   Ti4Si7Ni4
_chemical_formula_sum   'Ti8 Si14 Ni8'
_cell_volume   391.35520221
_cell_formula_units_Z   2
loop_
 _symmetry_equiv_pos_site_id
 _symmetry_equiv_pos_as_xyz
  1  'x, y, z'
loop_
 _atom_site_type_symbol
 _atom_site_label
 _atom_site_symmetry_multiplicity
 _atom_site_fract_x
 _atom_site_fract_y
 _atom_site_fract_z
 _atom_site_occupancy
  Si  Si0  1  0.75104290  0.00000000  0.00000000  1
  Si  Si1  1  0.28797910  0.71202090  0.71202090  1
  Si  Si2  1  0.70427373  0.00000000  0.59145254  1
  Si  Si3  1  0.29572627  0.40854746  0.00000000  1
  Si  Si4  1  0.70427373  0.59145254  0.00000000  1
  Si  Si5  1  0.29572627  0.00000000  0.40854746  1
  Si  Si6  1  0.00000000  0.28797910  0.71202090  1
  Si  Si7  1  0.00000000  0.71202090  0.28797910  1
  Si  Si8  1  0.24895710  0.00000000  0.00000000  1
  Si  Si9  1  0.09329022  0.40670978  0.40670978  1
  Si  Si10  1  0.50000000  0.59329022  0.40670978  1
  Si  Si11  1  0.50000000  0.40670978  0.59329022  1
  Si  Si12  1  0.90670978  0.59329022  0.59329022  1
  Si  Si13  1  0.71202090  0.28797910  0.28797910  1
  Ti  Ti14  1  0.31005334  0.18994666  0.18994666  1
  Ti  Ti15  1  0.13441959  0.00000000  0.73116082  1
  Ti  Ti16  1  0.50000000  0.18994666  0.81005334  1
  Ti  Ti17  1  0.68994666  0.81005334  0.81005334  1
  Ti  Ti18  1  0.86558041  0.00000000  0.26883918  1
  Ti  Ti19  1  0.13441959  0.73116082  0.00000000  1
  Ti  Ti20  1  0.86558041  0.26883918  0.00000000  1
  Ti  Ti21  1  0.50000000  0.81005334  0.18994666  1
  Ni  Ni22  1  0.10124454  0.79751092  0.50000000  1
  Ni  Ni23  1  0.39875546  0.20248908  0.50000000  1
  Ni  Ni24  1  0.60124454  0.50000000  0.79751092  1
  Ni  Ni25  1  0.10124454  0.50000000  0.79751092  1
  Ni  Ni26  1  0.89875546  0.20248908  0.50000000  1
  Ni  Ni27  1  0.60124454  0.79751092  0.50000000  1
  Ni  Ni28  1  0.39875546  0.50000000  0.20248908  1
  Ni  Ni29  1  0.89875546  0.50000000  0.20248908  1
