# generated using pymatgen
data_Rb2MoS4
_symmetry_space_group_name_H-M   'P 1'
_cell_length_a   7.15339068
_cell_length_b   9.93311427
_cell_length_c   12.75021574
_cell_angle_alpha   90.00000000
_cell_angle_beta   90.00000000
_cell_angle_gamma   90.00000000
_symmetry_Int_Tables_number   1
_chemical_formula_structural   Rb2MoS4
_chemical_formula_sum   'Rb8 Mo4 S16'
_cell_volume   905.97227929
_cell_formula_units_Z   4
loop_
 _symmetry_equiv_pos_site_id
 _symmetry_equiv_pos_as_xyz
  1  'x, y, z'
loop_
 _atom_site_type_symbol
 _atom_site_label
 _atom_site_symmetry_multiplicity
 _atom_site_fract_x
 _atom_site_fract_y
 _atom_site_fract_z
 _atom_site_occupancy
  S  S0  1  0.00086555  0.66204189  0.85648684  1
  S  S1  1  0.49913445  0.66204189  0.85648684  1
  S  S2  1  0.99913445  0.33795811  0.14351316  1
  S  S3  1  0.00086555  0.16204189  0.64351316  1
  S  S4  1  0.25000000  0.47342581  0.60472181  1
  S  S5  1  0.75000000  0.52657419  0.39527819  1
  S  S6  1  0.25000000  0.97342581  0.89527819  1
  S  S7  1  0.75000000  0.02657419  0.10472181  1
  S  S8  1  0.25000000  0.21415090  0.40303826  1
  S  S9  1  0.75000000  0.78584910  0.59696174  1
  S  S10  1  0.25000000  0.71415090  0.09696174  1
  S  S11  1  0.50086555  0.33795811  0.14351316  1
  S  S12  1  0.49913445  0.16204189  0.64351316  1
  S  S13  1  0.99913445  0.83795811  0.35648684  1
  S  S14  1  0.75000000  0.28584910  0.90303826  1
  S  S15  1  0.50086555  0.83795811  0.35648684  1
  Rb  Rb16  1  0.75000000  0.96256157  0.83232902  1
  Rb  Rb17  1  0.25000000  0.84674341  0.60388852  1
  Rb  Rb18  1  0.75000000  0.15325659  0.39611148  1
  Rb  Rb19  1  0.25000000  0.34674341  0.89611148  1
  Rb  Rb20  1  0.25000000  0.53743843  0.33232902  1
  Rb  Rb21  1  0.75000000  0.46256157  0.66767098  1
  Rb  Rb22  1  0.75000000  0.65325659  0.10388852  1
  Rb  Rb23  1  0.25000000  0.03743843  0.16767098  1
  Mo  Mo24  1  0.75000000  0.24529387  0.07310968  1
  Mo  Mo25  1  0.25000000  0.75470613  0.92689032  1
  Mo  Mo26  1  0.75000000  0.74529387  0.42689032  1
  Mo  Mo27  1  0.25000000  0.25470613  0.57310968  1
