# generated using pymatgen
data_NaTmGeO4
_symmetry_space_group_name_H-M   'P 1'
_cell_length_a   5.30137180
_cell_length_b   6.42753797
_cell_length_c   11.39271678
_cell_angle_alpha   90.00000000
_cell_angle_beta   90.00000000
_cell_angle_gamma   90.00000000
_symmetry_Int_Tables_number   1
_chemical_formula_structural   NaTmGeO4
_chemical_formula_sum   'Na4 Tm4 Ge4 O16'
_cell_volume   388.20418729
_cell_formula_units_Z   4
loop_
 _symmetry_equiv_pos_site_id
 _symmetry_equiv_pos_as_xyz
  1  'x, y, z'
loop_
 _atom_site_type_symbol
 _atom_site_label
 _atom_site_symmetry_multiplicity
 _atom_site_fract_x
 _atom_site_fract_y
 _atom_site_fract_z
 _atom_site_occupancy
  O  O0  1  0.83125291  0.75000000  0.04619923  1
  O  O1  1  0.33125291  0.25000000  0.45380077  1
  O  O2  1  0.16874709  0.25000000  0.95380077  1
  O  O3  1  0.66874709  0.75000000  0.54619923  1
  O  O4  1  0.20737527  0.04074777  0.17640128  1
  O  O5  1  0.70737527  0.95925223  0.32359872  1
  O  O6  1  0.79262473  0.54074777  0.82359872  1
  O  O7  1  0.29262473  0.45925223  0.67640128  1
  O  O8  1  0.79262473  0.95925223  0.82359872  1
  O  O9  1  0.29262473  0.04074777  0.67640128  1
  O  O10  1  0.20737527  0.45925223  0.17640128  1
  O  O11  1  0.70737527  0.54074777  0.32359872  1
  O  O12  1  0.22341603  0.75000000  0.38763482  1
  O  O13  1  0.72341603  0.25000000  0.11236518  1
  O  O14  1  0.77658397  0.25000000  0.61236518  1
  O  O15  1  0.27658397  0.75000000  0.88763482  1
  Na  Na16  1  0.50000000  0.00000000  0.00000000  1
  Na  Na17  1  0.00000000  0.00000000  0.50000000  1
  Na  Na18  1  0.50000000  0.50000000  0.00000000  1
  Na  Na19  1  0.00000000  0.50000000  0.50000000  1
  Ge  Ge20  1  0.94869139  0.75000000  0.90137316  1
  Ge  Ge21  1  0.44869139  0.25000000  0.59862684  1
  Ge  Ge22  1  0.05130861  0.25000000  0.09862684  1
  Ge  Ge23  1  0.55130861  0.75000000  0.40137316  1
  Tm  Tm24  1  0.99382786  0.75000000  0.22312886  1
  Tm  Tm25  1  0.49382786  0.25000000  0.27687114  1
  Tm  Tm26  1  0.00617214  0.25000000  0.77687114  1
  Tm  Tm27  1  0.50617214  0.75000000  0.72312886  1
