# generated using pymatgen
data_Sm2SiSeO4
_symmetry_space_group_name_H-M   'P 1'
_cell_length_a   6.18135901
_cell_length_b   7.14786619
_cell_length_c   11.02454931
_cell_angle_alpha   90.00000000
_cell_angle_beta   90.00000000
_cell_angle_gamma   90.00000000
_symmetry_Int_Tables_number   1
_chemical_formula_structural   Sm2SiSeO4
_chemical_formula_sum   'Sm8 Si4 Se4 O16'
_cell_volume   487.10347294
_cell_formula_units_Z   4
loop_
 _symmetry_equiv_pos_site_id
 _symmetry_equiv_pos_as_xyz
  1  'x, y, z'
loop_
 _atom_site_type_symbol
 _atom_site_label
 _atom_site_symmetry_multiplicity
 _atom_site_fract_x
 _atom_site_fract_y
 _atom_site_fract_z
 _atom_site_occupancy
  O  O0  1  0.27394698  0.42752771  0.03205422  1
  O  O1  1  0.27394698  0.07247229  0.96794578  1
  O  O2  1  0.72605302  0.92752771  0.46794578  1
  O  O3  1  0.72605302  0.57247229  0.53205422  1
  O  O4  1  0.72605302  0.57247229  0.96794578  1
  O  O5  1  0.72605302  0.92752771  0.03205422  1
  O  O6  1  0.27394698  0.07247229  0.53205422  1
  O  O7  1  0.27394698  0.42752771  0.46794578  1
  O  O8  1  0.04898639  0.73631988  0.11877269  1
  O  O9  1  0.04898639  0.73631988  0.38122731  1
  O  O10  1  0.95101361  0.23631988  0.38122731  1
  O  O11  1  0.95101361  0.26368012  0.61877269  1
  O  O12  1  0.95101361  0.26368012  0.88122731  1
  O  O13  1  0.95101361  0.23631988  0.11877269  1
  O  O14  1  0.04898639  0.76368012  0.61877269  1
  O  O15  1  0.04898639  0.76368012  0.88122731  1
  Si  Si16  1  0.11428012  0.25000000  0.50000000  1
  Si  Si17  1  0.88571988  0.75000000  0.50000000  1
  Si  Si18  1  0.88571988  0.75000000  0.00000000  1
  Si  Si19  1  0.11428012  0.25000000  0.00000000  1
  Se  Se20  1  0.57270179  0.87850314  0.75000000  1
  Se  Se21  1  0.57270179  0.62149686  0.25000000  1
  Se  Se22  1  0.42729821  0.37850314  0.75000000  1
  Se  Se23  1  0.42729821  0.12149686  0.25000000  1
  Sm  Sm24  1  0.60943017  0.25000000  0.50000000  1
  Sm  Sm25  1  0.60943017  0.25000000  0.00000000  1
  Sm  Sm26  1  0.39056983  0.75000000  0.50000000  1
  Sm  Sm27  1  0.39056983  0.75000000  0.00000000  1
  Sm  Sm28  1  0.86815816  0.53280178  0.75000000  1
  Sm  Sm29  1  0.86815816  0.96719822  0.25000000  1
  Sm  Sm30  1  0.13184184  0.03280178  0.75000000  1
  Sm  Sm31  1  0.13184184  0.46719822  0.25000000  1
