# generated using pymatgen
data_K8SnSb4
_symmetry_space_group_name_H-M   'P 1'
_cell_length_a   11.66968182
_cell_length_b   11.66968182
_cell_length_c   11.66968182
_cell_angle_alpha   60.00000001
_cell_angle_beta   60.00000000
_cell_angle_gamma   60.00000001
_symmetry_Int_Tables_number   1
_chemical_formula_structural   K8SnSb4
_chemical_formula_sum   'K16 Sn2 Sb8'
_cell_volume   1123.73018589
_cell_formula_units_Z   2
loop_
 _symmetry_equiv_pos_site_id
 _symmetry_equiv_pos_as_xyz
  1  'x, y, z'
loop_
 _atom_site_type_symbol
 _atom_site_label
 _atom_site_symmetry_multiplicity
 _atom_site_fract_x
 _atom_site_fract_y
 _atom_site_fract_z
 _atom_site_occupancy
  K  K0  1  0.00000000  0.00000000  0.00000000  1
  K  K1  1  0.00000000  0.00000000  0.50000000  1
  K  K2  1  0.50000000  0.00000000  0.00000000  1
  K  K3  1  0.00000000  0.50000000  0.00000000  1
  K  K4  1  0.60249848  0.14750152  0.14750152  1
  K  K5  1  0.85249848  0.85249848  0.39750152  1
  K  K6  1  0.39750152  0.39750152  0.85249848  1
  K  K7  1  0.85249848  0.39750152  0.39750152  1
  K  K8  1  0.85249848  0.39750152  0.85249848  1
  K  K9  1  0.39750152  0.85249848  0.39750152  1
  K  K10  1  0.14750152  0.60249848  0.14750152  1
  K  K11  1  0.14750152  0.14750152  0.60249848  1
  K  K12  1  0.60249848  0.60249848  0.14750152  1
  K  K13  1  0.60249848  0.14750152  0.60249848  1
  K  K14  1  0.39750152  0.85249848  0.85249848  1
  K  K15  1  0.14750152  0.60249848  0.60249848  1
  Sn  Sn16  1  0.87500000  0.87500000  0.87500000  1
  Sn  Sn17  1  0.12500000  0.12500000  0.12500000  1
  Sb  Sb18  1  0.22809794  0.22809794  0.22809794  1
  Sb  Sb19  1  0.77190206  0.77190206  0.18429381  1
  Sb  Sb20  1  0.18429381  0.77190206  0.77190206  1
  Sb  Sb21  1  0.77190206  0.18429381  0.77190206  1
  Sb  Sb22  1  0.81570619  0.22809794  0.22809794  1
  Sb  Sb23  1  0.22809794  0.81570619  0.22809794  1
  Sb  Sb24  1  0.22809794  0.22809794  0.81570619  1
  Sb  Sb25  1  0.77190206  0.77190206  0.77190206  1
