# generated using pymatgen
data_Mg(PO3)2
_symmetry_space_group_name_H-M   'P 1'
_cell_length_a   7.29015567
_cell_length_b   7.29015567
_cell_length_c   9.84498364
_cell_angle_alpha   98.82366260
_cell_angle_beta   109.54854100
_cell_angle_gamma   109.93670330
_symmetry_Int_Tables_number   1
_chemical_formula_structural   Mg(PO3)2
_chemical_formula_sum   'Mg4 P8 O24'
_cell_volume   441.88157950
_cell_formula_units_Z   4
loop_
 _symmetry_equiv_pos_site_id
 _symmetry_equiv_pos_as_xyz
  1  'x, y, z'
loop_
 _atom_site_type_symbol
 _atom_site_label
 _atom_site_symmetry_multiplicity
 _atom_site_fract_x
 _atom_site_fract_y
 _atom_site_fract_z
 _atom_site_occupancy
  O  O0  1  0.74599263  0.09293682  0.59735422  1
  O  O1  1  0.99558261  0.14863841  0.90264578  1
  O  O2  1  0.25400737  0.90706318  0.40264578  1
  O  O3  1  0.00441739  0.85136159  0.09735422  1
  O  O4  1  0.60810851  0.28932525  0.41927050  1
  O  O5  1  0.37005476  0.18883801  0.08072950  1
  O  O6  1  0.39189149  0.71067475  0.58072950  1
  O  O7  1  0.62994524  0.81116199  0.91927050  1
  O  O8  1  0.93251960  0.21472764  0.43690837  1
  O  O9  1  0.27781928  0.49561123  0.06309163  1
  O  O10  1  0.06748040  0.78527236  0.56309163  1
  O  O11  1  0.72218072  0.50438877  0.93690837  1
  O  O12  1  0.46984512  0.35045213  0.65633713  1
  O  O13  1  0.19411500  0.81350799  0.84366287  1
  O  O14  1  0.53015488  0.64954787  0.34366287  1
  O  O15  1  0.80588500  0.18649201  0.15633713  1
  O  O16  1  0.54849437  0.12604209  0.82768624  1
  O  O17  1  0.79835585  0.72080813  0.67231376  1
  O  O18  1  0.45150563  0.87395791  0.17231376  1
  O  O19  1  0.20164415  0.27919187  0.32768624  1
  O  O20  1  0.31667243  0.31231097  0.84719259  1
  O  O21  1  0.96511838  0.46947984  0.65280741  1
  O  O22  1  0.68332757  0.68768903  0.15280741  1
  O  O23  1  0.03488162  0.53052016  0.34719259  1
  Mg  Mg24  1  0.70005101  0.95005101  0.75000000  1
  Mg  Mg25  1  0.29994899  0.04994899  0.25000000  1
  Mg  Mg26  1  0.50000000  0.50000000  0.50000000  1
  Mg  Mg27  1  0.50000000  0.00000000  0.00000000  1
  P  P28  1  0.79264442  0.25509595  0.52431037  1
  P  P29  1  0.23078558  0.26833405  0.97568963  1
  P  P30  1  0.20735558  0.74490405  0.47568963  1
  P  P31  1  0.76921442  0.73166595  0.02431037  1
  P  P32  1  0.51273042  0.31465227  0.80558828  1
  P  P33  1  0.00906400  0.70714215  0.69441172  1
  P  P34  1  0.48726958  0.68534773  0.19441172  1
  P  P35  1  0.99093600  0.29285785  0.30558828  1
