# generated using pymatgen
data_ZnH12N4Cl4O3
_symmetry_space_group_name_H-M   'P 1'
_cell_length_a   9.48193379
_cell_length_b   10.01340525
_cell_length_c   12.78253433
_cell_angle_alpha   90.00000000
_cell_angle_beta   90.00000000
_cell_angle_gamma   90.00000000
_symmetry_Int_Tables_number   1
_chemical_formula_structural   ZnH12N4Cl4O3
_chemical_formula_sum   'Zn4 H48 N16 Cl16 O12'
_cell_volume   1213.65620030
_cell_formula_units_Z   4
loop_
 _symmetry_equiv_pos_site_id
 _symmetry_equiv_pos_as_xyz
  1  'x, y, z'
loop_
 _atom_site_type_symbol
 _atom_site_label
 _atom_site_symmetry_multiplicity
 _atom_site_fract_x
 _atom_site_fract_y
 _atom_site_fract_z
 _atom_site_occupancy
  Zn  Zn0  1  0.17575209  0.75000000  0.58875024  1
  Zn  Zn1  1  0.32424791  0.25000000  0.08875024  1
  Zn  Zn2  1  0.67575209  0.75000000  0.91124976  1
  Zn  Zn3  1  0.82424791  0.25000000  0.41124976  1
  H  H4  1  0.99872444  0.75000000  0.07458823  1
  H  H5  1  0.05054339  0.56228170  0.31471626  1
  H  H6  1  0.05054339  0.93771830  0.31471626  1
  H  H7  1  0.08326885  0.09428665  0.27781742  1
  H  H8  1  0.08326885  0.40571335  0.27781742  1
  H  H9  1  0.10357134  0.83484097  0.99225084  1
  H  H10  1  0.10357134  0.66515903  0.99225084  1
  H  H11  1  0.11135784  0.04982719  0.40276993  1
  H  H12  1  0.11135784  0.45017281  0.40276993  1
  H  H13  1  0.17101516  0.75000000  0.09550337  1
  H  H14  1  0.21951222  0.51234891  0.30833411  1
  H  H15  1  0.21951222  0.98765109  0.30833411  1
  H  H16  1  0.28048778  0.01234891  0.80833411  1
  H  H17  1  0.28048778  0.48765109  0.80833411  1
  H  H18  1  0.32898484  0.25000000  0.59550337  1
  H  H19  1  0.38864216  0.54982719  0.90276993  1
  H  H20  1  0.38864216  0.95017281  0.90276993  1
  H  H21  1  0.39642866  0.16515903  0.49225084  1
  H  H22  1  0.39642866  0.33484097  0.49225084  1
  H  H23  1  0.41673115  0.59428665  0.77781742  1
  H  H24  1  0.41673115  0.90571335  0.77781742  1
  H  H25  1  0.44945661  0.06228170  0.81471626  1
  H  H26  1  0.44945661  0.43771830  0.81471626  1
  H  H27  1  0.50127556  0.25000000  0.57458823  1
  H  H28  1  0.49872444  0.75000000  0.42541177  1
  H  H29  1  0.55054339  0.56228170  0.18528374  1
  H  H30  1  0.55054339  0.93771830  0.18528374  1
  H  H31  1  0.58326885  0.09428665  0.22218258  1
  H  H32  1  0.58326885  0.40571335  0.22218258  1
  H  H33  1  0.60357134  0.66515903  0.50774916  1
  H  H34  1  0.60357134  0.83484097  0.50774916  1
  H  H35  1  0.61135784  0.04982719  0.09723007  1
  H  H36  1  0.61135784  0.45017281  0.09723007  1
  H  H37  1  0.67101516  0.75000000  0.40449663  1
  H  H38  1  0.71951222  0.51234891  0.19166589  1
  H  H39  1  0.71951222  0.98765109  0.19166589  1
  H  H40  1  0.78048778  0.01234891  0.69166589  1
  H  H41  1  0.78048778  0.48765109  0.69166589  1
  H  H42  1  0.82898484  0.25000000  0.90449663  1
  H  H43  1  0.88864216  0.95017281  0.59723007  1
  H  H44  1  0.88864216  0.54982719  0.59723007  1
  H  H45  1  0.89642866  0.16515903  0.00774916  1
  H  H46  1  0.89642866  0.33484097  0.00774916  1
  H  H47  1  0.91673115  0.59428665  0.72218258  1
  H  H48  1  0.91673115  0.90571335  0.72218258  1
  H  H49  1  0.94945661  0.06228170  0.68528374  1
  H  H50  1  0.94945661  0.43771830  0.68528374  1
  H  H51  1  0.00127556  0.25000000  0.92541177  1
  N  N52  1  0.09484087  0.75000000  0.03679785  1
  N  N53  1  0.11769083  0.01752432  0.32625101  1
  N  N54  1  0.11769083  0.48247568  0.32625101  1
  N  N55  1  0.38230917  0.51752432  0.82625101  1
  N  N56  1  0.38230917  0.98247568  0.82625101  1
  N  N57  1  0.40515913  0.25000000  0.53679785  1
  N  N58  1  0.59484087  0.75000000  0.46320215  1
  N  N59  1  0.61769083  0.01752432  0.17374899  1
  N  N60  1  0.61769083  0.48247568  0.17374899  1
  N  N61  1  0.88230917  0.98247568  0.67374899  1
  N  N62  1  0.88230917  0.51752432  0.67374899  1
  N  N63  1  0.90515913  0.25000000  0.96320215  1
  N  N64  1  0.16176713  0.25000000  0.77336311  1
  N  N65  1  0.33823287  0.75000000  0.27336311  1
  N  N66  1  0.66176713  0.25000000  0.72663689  1
  N  N67  1  0.83823287  0.75000000  0.22663689  1
  Cl  Cl68  1  0.02471014  0.25000000  0.51458267  1
  Cl  Cl69  1  0.08327060  0.75000000  0.75985648  1
  Cl  Cl70  1  0.20177255  0.06008619  0.06098525  1
  Cl  Cl71  1  0.20177255  0.43991381  0.06098525  1
  Cl  Cl72  1  0.29822745  0.56008619  0.56098525  1
  Cl  Cl73  1  0.29822745  0.93991381  0.56098525  1
  Cl  Cl74  1  0.41672940  0.25000000  0.25985648  1
  Cl  Cl75  1  0.47528986  0.75000000  0.01458267  1
  Cl  Cl76  1  0.52471014  0.25000000  0.98541733  1
  Cl  Cl77  1  0.58327060  0.75000000  0.74014352  1
  Cl  Cl78  1  0.70177255  0.06008619  0.43901475  1
  Cl  Cl79  1  0.70177255  0.43991381  0.43901475  1
  Cl  Cl80  1  0.79822745  0.56008619  0.93901475  1
  Cl  Cl81  1  0.79822745  0.93991381  0.93901475  1
  Cl  Cl82  1  0.91672940  0.25000000  0.24014352  1
  Cl  Cl83  1  0.97528986  0.75000000  0.48541733  1
  O  O84  1  0.10176726  0.13983007  0.79616183  1
  O  O85  1  0.10176726  0.36016993  0.79616183  1
  O  O86  1  0.21776413  0.75000000  0.23192054  1
  O  O87  1  0.28223587  0.25000000  0.73192054  1
  O  O88  1  0.39823274  0.63983007  0.29616183  1
  O  O89  1  0.39823274  0.86016993  0.29616183  1
  O  O90  1  0.60176726  0.13983007  0.70383817  1
  O  O91  1  0.60176726  0.36016993  0.70383817  1
  O  O92  1  0.71776413  0.75000000  0.26807946  1
  O  O93  1  0.78223587  0.25000000  0.76807946  1
  O  O94  1  0.89823274  0.86016993  0.20383817  1
  O  O95  1  0.89823274  0.63983007  0.20383817  1
