# generated using pymatgen
data_Dy5B2C5
_symmetry_space_group_name_H-M   'P 1'
_cell_length_a   8.15992751
_cell_length_b   8.15992751
_cell_length_c   10.76677124
_cell_angle_alpha   90.00000000
_cell_angle_beta   90.00000000
_cell_angle_gamma   90.00000000
_symmetry_Int_Tables_number   1
_chemical_formula_structural   Dy5B2C5
_chemical_formula_sum   'Dy20 B8 C20'
_cell_volume   716.89918565
_cell_formula_units_Z   4
loop_
 _symmetry_equiv_pos_site_id
 _symmetry_equiv_pos_as_xyz
  1  'x, y, z'
loop_
 _atom_site_type_symbol
 _atom_site_label
 _atom_site_symmetry_multiplicity
 _atom_site_fract_x
 _atom_site_fract_y
 _atom_site_fract_z
 _atom_site_occupancy
  B  B0  1  0.09391739  0.59391739  0.25000000  1
  B  B1  1  0.59391739  0.09391739  0.75000000  1
  B  B2  1  0.40608261  0.59391739  0.75000000  1
  B  B3  1  0.09391739  0.90608261  0.75000000  1
  B  B4  1  0.90608261  0.40608261  0.75000000  1
  B  B5  1  0.90608261  0.09391739  0.25000000  1
  B  B6  1  0.59391739  0.40608261  0.25000000  1
  B  B7  1  0.40608261  0.90608261  0.25000000  1
  C  C8  1  0.75000000  0.75000000  0.59700496  1
  C  C9  1  0.75000000  0.75000000  0.09700496  1
  C  C10  1  0.25000000  0.25000000  0.40299504  1
  C  C11  1  0.25000000  0.25000000  0.90299504  1
  C  C12  1  0.05216267  0.64812828  0.37581524  1
  C  C13  1  0.44783733  0.85187172  0.37581524  1
  C  C14  1  0.14812828  0.55216267  0.12418476  1
  C  C15  1  0.64812828  0.44783733  0.37581524  1
  C  C16  1  0.85187172  0.05216267  0.37581524  1
  C  C17  1  0.94783733  0.14812828  0.12418476  1
  C  C18  1  0.55216267  0.35187172  0.12418476  1
  C  C19  1  0.35187172  0.94783733  0.12418476  1
  C  C20  1  0.64812828  0.05216267  0.87581524  1
  C  C21  1  0.44783733  0.64812828  0.87581524  1
  C  C22  1  0.05216267  0.85187172  0.87581524  1
  C  C23  1  0.14812828  0.94783733  0.62418476  1
  C  C24  1  0.35187172  0.55216267  0.62418476  1
  C  C25  1  0.85187172  0.44783733  0.87581524  1
  C  C26  1  0.55216267  0.14812828  0.62418476  1
  C  C27  1  0.94783733  0.35187172  0.62418476  1
  Dy  Dy28  1  0.25000000  0.25000000  0.63894939  1
  Dy  Dy29  1  0.75000000  0.75000000  0.86105061  1
  Dy  Dy30  1  0.75000000  0.75000000  0.36105061  1
  Dy  Dy31  1  0.25000000  0.25000000  0.13894939  1
  Dy  Dy32  1  0.03667309  0.65659941  0.60026232  1
  Dy  Dy33  1  0.46332691  0.84340059  0.60026232  1
  Dy  Dy34  1  0.15659941  0.53667309  0.89973768  1
  Dy  Dy35  1  0.65659941  0.46332691  0.60026232  1
  Dy  Dy36  1  0.84340059  0.03667309  0.60026232  1
  Dy  Dy37  1  0.96332691  0.15659941  0.89973768  1
  Dy  Dy38  1  0.53667309  0.34340059  0.89973768  1
  Dy  Dy39  1  0.34340059  0.96332691  0.89973768  1
  Dy  Dy40  1  0.96332691  0.34340059  0.39973768  1
  Dy  Dy41  1  0.53667309  0.15659941  0.39973768  1
  Dy  Dy42  1  0.84340059  0.46332691  0.10026232  1
  Dy  Dy43  1  0.34340059  0.53667309  0.39973768  1
  Dy  Dy44  1  0.15659941  0.96332691  0.39973768  1
  Dy  Dy45  1  0.03667309  0.84340059  0.10026232  1
  Dy  Dy46  1  0.46332691  0.65659941  0.10026232  1
  Dy  Dy47  1  0.65659941  0.03667309  0.10026232  1
