# generated using pymatgen
data_RbAgSe4
_symmetry_space_group_name_H-M   'P 1'
_cell_length_a   5.90332462
_cell_length_b   9.23537586
_cell_length_c   13.80695148
_cell_angle_alpha   90.00000000
_cell_angle_beta   90.00000000
_cell_angle_gamma   90.00000000
_symmetry_Int_Tables_number   1
_chemical_formula_structural   RbAgSe4
_chemical_formula_sum   'Rb4 Ag4 Se16'
_cell_volume   752.74700998
_cell_formula_units_Z   4
loop_
 _symmetry_equiv_pos_site_id
 _symmetry_equiv_pos_as_xyz
  1  'x, y, z'
loop_
 _atom_site_type_symbol
 _atom_site_label
 _atom_site_symmetry_multiplicity
 _atom_site_fract_x
 _atom_site_fract_y
 _atom_site_fract_z
 _atom_site_occupancy
  Se  Se0  1  0.87438853  0.30789077  0.60988880  1
  Se  Se1  1  0.37438853  0.19210923  0.39011120  1
  Se  Se2  1  0.12561147  0.80789077  0.89011120  1
  Se  Se3  1  0.62561147  0.69210923  0.10988880  1
  Se  Se4  1  0.13582662  0.13282861  0.67382841  1
  Se  Se5  1  0.63582662  0.36717139  0.32617159  1
  Se  Se6  1  0.86417338  0.63282861  0.82617159  1
  Se  Se7  1  0.36417338  0.86717139  0.17382841  1
  Se  Se8  1  0.81319979  0.13296293  0.10449430  1
  Se  Se9  1  0.31319979  0.36703707  0.89550570  1
  Se  Se10  1  0.18680021  0.63296293  0.39550570  1
  Se  Se11  1  0.68680021  0.86703707  0.60449430  1
  Se  Se12  1  0.42357194  0.08105228  0.07518954  1
  Se  Se13  1  0.92357194  0.41894772  0.92481046  1
  Se  Se14  1  0.57642806  0.58105228  0.42481046  1
  Se  Se15  1  0.07642806  0.91894772  0.57518954  1
  Rb  Rb16  1  0.18196280  0.44046723  0.16028378  1
  Rb  Rb17  1  0.68196280  0.05953277  0.83971622  1
  Rb  Rb18  1  0.81803720  0.94046723  0.33971622  1
  Rb  Rb19  1  0.31803720  0.55953277  0.66028378  1
  Ag  Ag20  1  0.96430530  0.86862455  0.06564483  1
  Ag  Ag21  1  0.46430530  0.63137545  0.93435517  1
  Ag  Ag22  1  0.03569470  0.36862455  0.43435517  1
  Ag  Ag23  1  0.53569470  0.13137545  0.56564483  1
