# generated using pymatgen
data_SrNi5P3
_symmetry_space_group_name_H-M   'P 1'
_cell_length_a   3.60852652
_cell_length_b   6.14518791
_cell_length_c   11.61235089
_cell_angle_alpha   90.00000000
_cell_angle_beta   90.00000000
_cell_angle_gamma   107.07395822
_symmetry_Int_Tables_number   1
_chemical_formula_structural   SrNi5P3
_chemical_formula_sum   'Sr2 Ni10 P6'
_cell_volume   246.15561596
_cell_formula_units_Z   2
loop_
 _symmetry_equiv_pos_site_id
 _symmetry_equiv_pos_as_xyz
  1  'x, y, z'
loop_
 _atom_site_type_symbol
 _atom_site_label
 _atom_site_symmetry_multiplicity
 _atom_site_fract_x
 _atom_site_fract_y
 _atom_site_fract_z
 _atom_site_occupancy
  P  P0  1  0.11542622  0.23085245  0.25000000  1
  P  P1  1  0.88457378  0.76914755  0.75000000  1
  P  P2  1  0.61856432  0.23712865  0.96285524  1
  P  P3  1  0.38143568  0.76287135  0.03714476  1
  P  P4  1  0.38143568  0.76287135  0.46285524  1
  P  P5  1  0.61856432  0.23712865  0.53714476  1
  Ni  Ni6  1  0.55027866  0.10055732  0.35493035  1
  Ni  Ni7  1  0.55027866  0.10055732  0.14506965  1
  Ni  Ni8  1  0.19792252  0.39584504  0.06811001  1
  Ni  Ni9  1  0.80207748  0.60415496  0.93188999  1
  Ni  Ni10  1  0.80207748  0.60415496  0.56811001  1
  Ni  Ni11  1  0.19792252  0.39584504  0.43188999  1
  Ni  Ni12  1  0.00000000  0.00000000  0.50000000  1
  Ni  Ni13  1  0.00000000  0.00000000  0.00000000  1
  Ni  Ni14  1  0.44972134  0.89944268  0.85493035  1
  Ni  Ni15  1  0.44972134  0.89944268  0.64506965  1
  Sr  Sr16  1  0.83824768  0.67649536  0.25000000  1
  Sr  Sr17  1  0.16175232  0.32350464  0.75000000  1
