# generated using pymatgen
data_RbLaSiS4
_symmetry_space_group_name_H-M   'P 1'
_cell_length_a   6.63314129
_cell_length_b   6.69579846
_cell_length_c   17.56937631
_cell_angle_alpha   90.00000000
_cell_angle_beta   90.00000000
_cell_angle_gamma   90.00000000
_symmetry_Int_Tables_number   1
_chemical_formula_structural   RbLaSiS4
_chemical_formula_sum   'Rb4 La4 Si4 S16'
_cell_volume   780.32939333
_cell_formula_units_Z   4
loop_
 _symmetry_equiv_pos_site_id
 _symmetry_equiv_pos_as_xyz
  1  'x, y, z'
loop_
 _atom_site_type_symbol
 _atom_site_label
 _atom_site_symmetry_multiplicity
 _atom_site_fract_x
 _atom_site_fract_y
 _atom_site_fract_z
 _atom_site_occupancy
  Si  Si0  1  0.28468994  0.25000000  0.91199922  1
  Si  Si1  1  0.71531006  0.75000000  0.08800078  1
  Si  Si2  1  0.21531006  0.25000000  0.41199922  1
  Si  Si3  1  0.78468994  0.75000000  0.58800078  1
  S  S4  1  0.90919217  0.49984248  0.10668203  1
  S  S5  1  0.40919217  0.50015752  0.39331797  1
  S  S6  1  0.09080783  0.99984248  0.89331797  1
  S  S7  1  0.59080783  0.00015752  0.60668203  1
  S  S8  1  0.40919217  0.99984248  0.39331797  1
  S  S9  1  0.09080783  0.50015752  0.89331797  1
  S  S10  1  0.90919217  0.00015752  0.10668203  1
  S  S11  1  0.59080783  0.49984248  0.60668203  1
  S  S12  1  0.03803512  0.75000000  0.66098250  1
  S  S13  1  0.53803512  0.25000000  0.83901750  1
  S  S14  1  0.96196488  0.25000000  0.33901750  1
  S  S15  1  0.46196488  0.75000000  0.16098250  1
  S  S16  1  0.62959584  0.75000000  0.97055034  1
  S  S17  1  0.12959584  0.25000000  0.52944966  1
  S  S18  1  0.37040416  0.25000000  0.02944966  1
  S  S19  1  0.87040416  0.75000000  0.47055034  1
  Rb  Rb20  1  0.46457539  0.75000000  0.78355716  1
  Rb  Rb21  1  0.96457539  0.25000000  0.71644284  1
  Rb  Rb22  1  0.53542461  0.25000000  0.21644284  1
  Rb  Rb23  1  0.03542461  0.75000000  0.28355716  1
  La  La24  1  0.28675433  0.75000000  0.52486421  1
  La  La25  1  0.78675433  0.25000000  0.97513579  1
  La  La26  1  0.71324567  0.25000000  0.47513579  1
  La  La27  1  0.21324567  0.75000000  0.02486421  1
