# generated using pymatgen
data_CsDy2Cu3Se5
_symmetry_space_group_name_H-M   'P 1'
_cell_length_a   4.13959568
_cell_length_b   7.63432875
_cell_length_c   17.43124532
_cell_angle_alpha   90.00000000
_cell_angle_beta   90.00000000
_cell_angle_gamma   105.73075762
_symmetry_Int_Tables_number   1
_chemical_formula_structural   CsDy2Cu3Se5
_chemical_formula_sum   'Cs2 Dy4 Cu6 Se10'
_cell_volume   530.24776429
_cell_formula_units_Z   2
loop_
 _symmetry_equiv_pos_site_id
 _symmetry_equiv_pos_as_xyz
  1  'x, y, z'
loop_
 _atom_site_type_symbol
 _atom_site_label
 _atom_site_symmetry_multiplicity
 _atom_site_fract_x
 _atom_site_fract_y
 _atom_site_fract_z
 _atom_site_occupancy
  Cu  Cu0  1  0.41566156  0.83132312  0.53020309  1
  Cu  Cu1  1  0.58433844  0.16867688  0.46979691  1
  Cu  Cu2  1  0.65829486  0.31658971  0.75000000  1
  Cu  Cu3  1  0.34170514  0.68341029  0.25000000  1
  Cu  Cu4  1  0.41566156  0.83132312  0.96979691  1
  Cu  Cu5  1  0.58433844  0.16867688  0.03020309  1
  Se  Se6  1  0.56068086  0.12136171  0.88795468  1
  Se  Se7  1  0.16769022  0.33538044  0.07010360  1
  Se  Se8  1  0.56068086  0.12136171  0.61204532  1
  Se  Se9  1  0.83230978  0.66461956  0.57010360  1
  Se  Se10  1  0.16769022  0.33538044  0.42989640  1
  Se  Se11  1  0.83230978  0.66461956  0.92989640  1
  Se  Se12  1  0.23788505  0.47577010  0.75000000  1
  Se  Se13  1  0.76211495  0.52422990  0.25000000  1
  Se  Se14  1  0.43931914  0.87863829  0.38795468  1
  Se  Se15  1  0.43931914  0.87863829  0.11204532  1
  Cs  Cs16  1  0.06076962  0.12153924  0.25000000  1
  Cs  Cs17  1  0.93923038  0.87846076  0.75000000  1
  Dy  Dy18  1  0.80788641  0.61577283  0.40885605  1
  Dy  Dy19  1  0.80788641  0.61577283  0.09114395  1
  Dy  Dy20  1  0.19211359  0.38422717  0.59114395  1
  Dy  Dy21  1  0.19211359  0.38422717  0.90885605  1
