# generated using pymatgen
data_Ba3Sn5
_symmetry_space_group_name_H-M   'P 1'
_cell_length_a   7.20677109
_cell_length_b   7.20677109
_cell_length_c   11.31927319
_cell_angle_alpha   90.00000000
_cell_angle_beta   90.00000000
_cell_angle_gamma   101.65379047
_symmetry_Int_Tables_number   1
_chemical_formula_structural   Ba3Sn5
_chemical_formula_sum   'Ba6 Sn10'
_cell_volume   575.77646313
_cell_formula_units_Z   2
loop_
 _symmetry_equiv_pos_site_id
 _symmetry_equiv_pos_as_xyz
  1  'x, y, z'
loop_
 _atom_site_type_symbol
 _atom_site_label
 _atom_site_symmetry_multiplicity
 _atom_site_fract_x
 _atom_site_fract_y
 _atom_site_fract_z
 _atom_site_occupancy
  Sn  Sn0  1  0.80687825  0.80687825  0.43964225  1
  Sn  Sn1  1  0.19312175  0.19312175  0.93964225  1
  Sn  Sn2  1  0.80687825  0.80687825  0.06035775  1
  Sn  Sn3  1  0.19312175  0.19312175  0.56035775  1
  Sn  Sn4  1  0.01977863  0.40377392  0.75000000  1
  Sn  Sn5  1  0.98022137  0.59622608  0.25000000  1
  Sn  Sn6  1  0.55065668  0.55065668  0.25000000  1
  Sn  Sn7  1  0.44934332  0.44934332  0.75000000  1
  Sn  Sn8  1  0.59622608  0.98022137  0.25000000  1
  Sn  Sn9  1  0.40377392  0.01977863  0.75000000  1
  Ba  Ba10  1  0.70533682  0.29466318  0.50000000  1
  Ba  Ba11  1  0.29466318  0.70533682  0.00000000  1
  Ba  Ba12  1  0.29466318  0.70533682  0.50000000  1
  Ba  Ba13  1  0.70533682  0.29466318  0.00000000  1
  Ba  Ba14  1  0.85039947  0.85039947  0.75000000  1
  Ba  Ba15  1  0.14960053  0.14960053  0.25000000  1
