# generated using pymatgen
data_K4Ta2S11
_symmetry_space_group_name_H-M   'P 1'
_cell_length_a   7.61436841
_cell_length_b   11.65685468
_cell_length_c   12.00498998
_cell_angle_alpha   68.83838635
_cell_angle_beta   86.37820774
_cell_angle_gamma   85.47382758
_symmetry_Int_Tables_number   1
_chemical_formula_structural   K4Ta2S11
_chemical_formula_sum   'K8 Ta4 S22'
_cell_volume   989.91441679
_cell_formula_units_Z   2
loop_
 _symmetry_equiv_pos_site_id
 _symmetry_equiv_pos_as_xyz
  1  'x, y, z'
loop_
 _atom_site_type_symbol
 _atom_site_label
 _atom_site_symmetry_multiplicity
 _atom_site_fract_x
 _atom_site_fract_y
 _atom_site_fract_z
 _atom_site_occupancy
  S  S0  1  0.16626683  0.96909684  0.20313664  1
  S  S1  1  0.61118323  0.08271212  0.11966861  1
  S  S2  1  0.38881677  0.91728788  0.88033139  1
  S  S3  1  0.23390777  0.33863509  0.53400189  1
  S  S4  1  0.93323329  0.80603256  0.66470347  1
  S  S5  1  0.06676671  0.19396744  0.33529653  1
  S  S6  1  0.65357779  0.63740642  0.89805133  1
  S  S7  1  0.34642221  0.36259358  0.10194867  1
  S  S8  1  0.71194639  0.06394107  0.63511150  1
  S  S9  1  0.28805361  0.93605893  0.36488850  1
  S  S10  1  0.03618265  0.62369716  0.72961206  1
  S  S11  1  0.96381735  0.37630284  0.27038794  1
  S  S12  1  0.73149250  0.41577904  0.75899175  1
  S  S13  1  0.26850750  0.58422096  0.24100825  1
  S  S14  1  0.49060702  0.18090083  0.36645964  1
  S  S15  1  0.19055027  0.26795081  0.02994648  1
  S  S16  1  0.83373317  0.03090316  0.79686336  1
  S  S17  1  0.80944973  0.73204919  0.97005352  1
  S  S18  1  0.48676310  0.51580489  0.74455346  1
  S  S19  1  0.51323690  0.48419511  0.25544654  1
  S  S20  1  0.50939298  0.81909917  0.63354036  1
  S  S21  1  0.76609223  0.66136491  0.46599811  1
  K  K22  1  0.22920047  0.65286691  0.94708353  1
  K  K23  1  0.74351917  0.36924011  0.50620557  1
  K  K24  1  0.25648083  0.63075989  0.49379443  1
  K  K25  1  0.47277792  0.18701622  0.84634248  1
  K  K26  1  0.78357785  0.96291755  0.38836897  1
  K  K27  1  0.21642215  0.03708245  0.61163103  1
  K  K28  1  0.52722208  0.81298378  0.15365752  1
  K  K29  1  0.77079953  0.34713309  0.05291647  1
  Ta  Ta30  1  0.26605160  0.35275337  0.34050294  1
  Ta  Ta31  1  0.73394840  0.64724663  0.65949706  1
  Ta  Ta32  1  0.35458602  0.13287642  0.20422431  1
  Ta  Ta33  1  0.64541398  0.86712358  0.79577569  1
