# generated using pymatgen
data_Li2Cr2Si2O7
_symmetry_space_group_name_H-M   'P 1'
_cell_length_a   8.07214770
_cell_length_b   13.64526688
_cell_length_c   5.62913457
_cell_angle_alpha   90.00000000
_cell_angle_beta   89.60686756
_cell_angle_gamma   90.00000000
_symmetry_Int_Tables_number   1
_chemical_formula_structural   Li2Cr2Si2O7
_chemical_formula_sum   'Li8 Cr8 Si8 O28'
_cell_volume   620.01549291
_cell_formula_units_Z   4
loop_
 _symmetry_equiv_pos_site_id
 _symmetry_equiv_pos_as_xyz
  1  'x, y, z'
loop_
 _atom_site_type_symbol
 _atom_site_label
 _atom_site_symmetry_multiplicity
 _atom_site_fract_x
 _atom_site_fract_y
 _atom_site_fract_z
 _atom_site_occupancy
  Li  Li0  1  0.11568784  0.34765481  0.15109557  1
  Li  Li1  1  0.18240614  0.74885657  0.79455789  1
  Li  Li2  1  0.31759386  0.24885657  0.70544211  1
  Li  Li3  1  0.38431216  0.84765481  0.34890443  1
  Li  Li4  1  0.61568784  0.15234519  0.65109557  1
  Li  Li5  1  0.68240614  0.75114343  0.29455789  1
  Li  Li6  1  0.81759386  0.25114343  0.20544211  1
  Li  Li7  1  0.88431216  0.65234519  0.84890443  1
  Cr  Cr8  1  0.09905538  0.08318009  0.34947151  1
  Cr  Cr9  1  0.17513334  0.49140208  0.64446698  1
  Cr  Cr10  1  0.32486666  0.99140208  0.85553302  1
  Cr  Cr11  1  0.40094462  0.58318009  0.15052849  1
  Cr  Cr12  1  0.59905538  0.41681991  0.84947151  1
  Cr  Cr13  1  0.67513334  0.00859792  0.14446698  1
  Cr  Cr14  1  0.82486666  0.50859792  0.35553302  1
  Cr  Cr15  1  0.90094462  0.91681991  0.65052849  1
  Si  Si16  1  0.04420678  0.88471075  0.17055968  1
  Si  Si17  1  0.05267755  0.67819890  0.31059150  1
  Si  Si18  1  0.44732245  0.17819890  0.18940850  1
  Si  Si19  1  0.45579322  0.38471075  0.32944032  1
  Si  Si20  1  0.54420678  0.61528925  0.67055968  1
  Si  Si21  1  0.55267755  0.82180110  0.81059150  1
  Si  Si22  1  0.94732245  0.32180110  0.68940850  1
  Si  Si23  1  0.95579322  0.11528925  0.82944032  1
  O  O24  1  0.04538702  0.79756267  0.37852076  1
  O  O25  1  0.01507977  0.16594947  0.07408376  1
  O  O26  1  0.08166073  0.03048851  0.71211631  1
  O  O27  1  0.09102350  0.62975398  0.57283057  1
  O  O28  1  0.13077699  0.35605276  0.79049816  1
  O  O29  1  0.18950536  0.66199785  0.10066170  1
  O  O30  1  0.22980947  0.93351573  0.17275307  1
  O  O31  1  0.27019053  0.43351573  0.32724693  1
  O  O32  1  0.31049464  0.16199785  0.39933830  1
  O  O33  1  0.36922301  0.85605276  0.70950184  1
  O  O34  1  0.40897650  0.12975398  0.92716943  1
  O  O35  1  0.41833927  0.53048851  0.78788369  1
  O  O36  1  0.48492023  0.66594947  0.42591624  1
  O  O37  1  0.45461298  0.29756267  0.12147924  1
  O  O38  1  0.54538702  0.70243733  0.87852076  1
  O  O39  1  0.51507977  0.33405053  0.57408376  1
  O  O40  1  0.58166073  0.46951149  0.21211631  1
  O  O41  1  0.59102350  0.87024602  0.07283057  1
  O  O42  1  0.63077699  0.14394724  0.29049816  1
  O  O43  1  0.68950536  0.83800215  0.60066170  1
  O  O44  1  0.72980947  0.56648427  0.67275307  1
  O  O45  1  0.77019053  0.06648427  0.82724693  1
  O  O46  1  0.81049464  0.33800215  0.89933830  1
  O  O47  1  0.86922301  0.64394724  0.20950184  1
  O  O48  1  0.90897650  0.37024602  0.42716943  1
  O  O49  1  0.91833927  0.96951149  0.28788369  1
  O  O50  1  0.98492023  0.83405053  0.92591624  1
  O  O51  1  0.95461298  0.20243733  0.62147924  1
