# generated using pymatgen
data_Sr3HoRhO6
_symmetry_space_group_name_H-M   'P 1'
_cell_length_a   6.85161956
_cell_length_b   6.85161955
_cell_length_c   6.85161955
_cell_angle_alpha   92.19087863
_cell_angle_beta   92.19087864
_cell_angle_gamma   92.19087864
_symmetry_Int_Tables_number   1
_chemical_formula_structural   Sr3HoRhO6
_chemical_formula_sum   'Sr6 Ho2 Rh2 O12'
_cell_volume   320.92327487
_cell_formula_units_Z   2
loop_
 _symmetry_equiv_pos_site_id
 _symmetry_equiv_pos_as_xyz
  1  'x, y, z'
loop_
 _atom_site_type_symbol
 _atom_site_label
 _atom_site_symmetry_multiplicity
 _atom_site_fract_x
 _atom_site_fract_y
 _atom_site_fract_z
 _atom_site_occupancy
  O  O0  1  0.79217295  0.59141911  0.45724469  1
  O  O1  1  0.59141911  0.45724469  0.79217295  1
  O  O2  1  0.45724469  0.79217295  0.59141911  1
  O  O3  1  0.04275531  0.90858089  0.70782705  1
  O  O4  1  0.90858089  0.70782705  0.04275531  1
  O  O5  1  0.70782705  0.04275531  0.90858089  1
  O  O6  1  0.20782705  0.40858089  0.54275531  1
  O  O7  1  0.40858089  0.54275531  0.20782705  1
  O  O8  1  0.54275531  0.20782705  0.40858089  1
  O  O9  1  0.95724469  0.09141911  0.29217295  1
  O  O10  1  0.29217295  0.95724469  0.09141911  1
  O  O11  1  0.09141911  0.29217295  0.95724469  1
  Sr  Sr12  1  0.61880323  0.88119677  0.25000000  1
  Sr  Sr13  1  0.25000000  0.61880323  0.88119677  1
  Sr  Sr14  1  0.88119677  0.25000000  0.61880323  1
  Sr  Sr15  1  0.38119677  0.11880323  0.75000000  1
  Sr  Sr16  1  0.11880323  0.75000000  0.38119677  1
  Sr  Sr17  1  0.75000000  0.38119677  0.11880323  1
  Rh  Rh18  1  0.50000000  0.50000000  0.50000000  1
  Rh  Rh19  1  0.00000000  0.00000000  0.00000000  1
  Ho  Ho20  1  0.75000000  0.75000000  0.75000000  1
  Ho  Ho21  1  0.25000000  0.25000000  0.25000000  1
