# generated using pymatgen
data_Zr2Ni12P7
_symmetry_space_group_name_H-M   'P 1'
_cell_length_a   8.99908811
_cell_length_b   8.99908811
_cell_length_c   3.58738478
_cell_angle_alpha   90.00000000
_cell_angle_beta   90.00000000
_cell_angle_gamma   120.00000003
_symmetry_Int_Tables_number   1
_chemical_formula_structural   Zr2Ni12P7
_chemical_formula_sum   'Zr2 Ni12 P7'
_cell_volume   251.59708265
_cell_formula_units_Z   1
loop_
 _symmetry_equiv_pos_site_id
 _symmetry_equiv_pos_as_xyz
  1  'x, y, z'
loop_
 _atom_site_type_symbol
 _atom_site_label
 _atom_site_symmetry_multiplicity
 _atom_site_fract_x
 _atom_site_fract_y
 _atom_site_fract_z
 _atom_site_occupancy
  P  P0  1  0.00000000  0.00000000  0.00000000  1
  P  P1  1  0.41284979  0.11926594  0.00000000  1
  P  P2  1  0.58915687  0.88012844  0.50000000  1
  P  P3  1  0.11987156  0.70902843  0.50000000  1
  P  P4  1  0.29097157  0.41084313  0.50000000  1
  P  P5  1  0.88073406  0.29358384  0.00000000  1
  P  P6  1  0.70641616  0.58715021  0.00000000  1
  Ni  Ni7  1  0.62756608  0.06082659  0.00000000  1
  Ni  Ni8  1  0.21900965  0.12821320  0.50000000  1
  Ni  Ni9  1  0.43326050  0.37243392  0.00000000  1
  Ni  Ni10  1  0.87178680  0.09079645  0.50000000  1
  Ni  Ni11  1  0.72333760  0.84221796  0.00000000  1
  Ni  Ni12  1  0.11888036  0.27666240  0.00000000  1
  Ni  Ni13  1  0.15778204  0.88111964  0.00000000  1
  Ni  Ni14  1  0.56530245  0.61215002  0.50000000  1
  Ni  Ni15  1  0.38784998  0.95315243  0.50000000  1
  Ni  Ni16  1  0.04684757  0.43469755  0.50000000  1
  Ni  Ni17  1  0.90920355  0.78099035  0.50000000  1
  Ni  Ni18  1  0.93917341  0.56673950  0.00000000  1
  Zr  Zr19  1  0.33333333  0.66666667  0.00000000  1
  Zr  Zr20  1  0.66666667  0.33333333  0.50000000  1
