# generated using pymatgen
data_Ho2Si2O7
_symmetry_space_group_name_H-M   'P 1'
_cell_length_a   5.07739521
_cell_length_b   8.15874857
_cell_length_c   13.75106833
_cell_angle_alpha   90.00000000
_cell_angle_beta   90.00000000
_cell_angle_gamma   90.00000000
_symmetry_Int_Tables_number   1
_chemical_formula_structural   Ho2Si2O7
_chemical_formula_sum   'Ho8 Si8 O28'
_cell_volume   569.64063077
_cell_formula_units_Z   4
loop_
 _symmetry_equiv_pos_site_id
 _symmetry_equiv_pos_as_xyz
  1  'x, y, z'
loop_
 _atom_site_type_symbol
 _atom_site_label
 _atom_site_symmetry_multiplicity
 _atom_site_fract_x
 _atom_site_fract_y
 _atom_site_fract_z
 _atom_site_occupancy
  O  O0  1  0.84783624  0.74341375  0.89982099  1
  O  O1  1  0.15216376  0.24341375  0.10017901  1
  O  O2  1  0.65216376  0.74341375  0.39982099  1
  O  O3  1  0.34783624  0.24341375  0.60017901  1
  O  O4  1  0.29400324  0.91311023  0.95233935  1
  O  O5  1  0.70599676  0.41311023  0.04766065  1
  O  O6  1  0.20599676  0.91311023  0.45233935  1
  O  O7  1  0.79400324  0.41311023  0.54766065  1
  O  O8  1  0.29412713  0.57381106  0.95236996  1
  O  O9  1  0.70587287  0.07381106  0.04763004  1
  O  O10  1  0.20587287  0.57381106  0.45236996  1
  O  O11  1  0.79412713  0.07381106  0.54763004  1
  O  O12  1  0.06644946  0.74342365  0.08048907  1
  O  O13  1  0.93355054  0.24342365  0.91951093  1
  O  O14  1  0.43355054  0.74342365  0.58048907  1
  O  O15  1  0.56644946  0.24342365  0.41951093  1
  O  O16  1  0.49152318  0.07786344  0.26649538  1
  O  O17  1  0.50847682  0.57786344  0.73350462  1
  O  O18  1  0.00847682  0.07786344  0.76649538  1
  O  O19  1  0.99152318  0.57786344  0.23350462  1
  O  O20  1  0.49138979  0.40915833  0.26655288  1
  O  O21  1  0.50861021  0.90915833  0.73344712  1
  O  O22  1  0.00861021  0.40915833  0.76655288  1
  O  O23  1  0.99138979  0.90915833  0.23344712  1
  O  O24  1  0.06873958  0.24341832  0.34490189  1
  O  O25  1  0.93126042  0.74341832  0.65509811  1
  O  O26  1  0.43126042  0.24341832  0.84490189  1
  O  O27  1  0.56873958  0.74341832  0.15509811  1
  Si  Si28  1  0.12581454  0.74343779  0.95918282  1
  Si  Si29  1  0.87418546  0.24343779  0.04081718  1
  Si  Si30  1  0.37418546  0.74343779  0.45918282  1
  Si  Si31  1  0.62581454  0.24343779  0.54081718  1
  Si  Si32  1  0.88016389  0.74346302  0.18178673  1
  Si  Si33  1  0.11983611  0.24346302  0.81821327  1
  Si  Si34  1  0.61983611  0.74346302  0.68178673  1
  Si  Si35  1  0.38016389  0.24346302  0.31821327  1
  Ho  Ho36  1  0.84254177  0.00348342  0.37439088  1
  Ho  Ho37  1  0.15745823  0.50348342  0.62560912  1
  Ho  Ho38  1  0.65745823  0.00348342  0.87439088  1
  Ho  Ho39  1  0.34254177  0.50348342  0.12560912  1
  Ho  Ho40  1  0.84257171  0.48341699  0.37439730  1
  Ho  Ho41  1  0.15742829  0.98341699  0.62560270  1
  Ho  Ho42  1  0.65742829  0.48341699  0.87439730  1
  Ho  Ho43  1  0.34257171  0.98341699  0.12560270  1
