# generated using pymatgen
data_Sr3DyRhO6
_symmetry_space_group_name_H-M   'P 1'
_cell_length_a   6.86007872
_cell_length_b   6.86007872
_cell_length_c   6.86007871
_cell_angle_alpha   92.14819831
_cell_angle_beta   92.14819829
_cell_angle_gamma   92.14819833
_symmetry_Int_Tables_number   1
_chemical_formula_structural   Sr3DyRhO6
_chemical_formula_sum   'Sr6 Dy2 Rh2 O12'
_cell_volume   322.14178852
_cell_formula_units_Z   2
loop_
 _symmetry_equiv_pos_site_id
 _symmetry_equiv_pos_as_xyz
  1  'x, y, z'
loop_
 _atom_site_type_symbol
 _atom_site_label
 _atom_site_symmetry_multiplicity
 _atom_site_fract_x
 _atom_site_fract_y
 _atom_site_fract_z
 _atom_site_occupancy
  O  O0  1  0.79214090  0.59046163  0.45636933  1
  O  O1  1  0.59046163  0.45636933  0.79214090  1
  O  O2  1  0.45636933  0.79214090  0.59046163  1
  O  O3  1  0.04363067  0.90953837  0.70785910  1
  O  O4  1  0.90953837  0.70785910  0.04363067  1
  O  O5  1  0.70785910  0.04363067  0.90953837  1
  O  O6  1  0.20785910  0.40953837  0.54363067  1
  O  O7  1  0.40953837  0.54363067  0.20785910  1
  O  O8  1  0.54363067  0.20785910  0.40953837  1
  O  O9  1  0.95636933  0.09046163  0.29214090  1
  O  O10  1  0.29214090  0.95636933  0.09046163  1
  O  O11  1  0.09046163  0.29214090  0.95636933  1
  Sr  Sr12  1  0.61874388  0.88125612  0.25000000  1
  Sr  Sr13  1  0.25000000  0.61874388  0.88125612  1
  Sr  Sr14  1  0.88125612  0.25000000  0.61874388  1
  Sr  Sr15  1  0.38125612  0.11874388  0.75000000  1
  Sr  Sr16  1  0.11874388  0.75000000  0.38125612  1
  Sr  Sr17  1  0.75000000  0.38125612  0.11874388  1
  Rh  Rh18  1  0.50000000  0.50000000  0.50000000  1
  Rh  Rh19  1  0.00000000  0.00000000  0.00000000  1
  Dy  Dy20  1  0.75000000  0.75000000  0.75000000  1
  Dy  Dy21  1  0.25000000  0.25000000  0.25000000  1
