# generated using pymatgen
data_MnGeRh
_symmetry_space_group_name_H-M   'P 1'
_cell_length_a   6.61707054
_cell_length_b   7.13515150
_cell_length_c   7.46951533
_cell_angle_alpha   118.52995186
_cell_angle_beta   116.29151431
_cell_angle_gamma   89.99999999
_symmetry_Int_Tables_number   1
_chemical_formula_structural   MnGeRh
_chemical_formula_sum   'Mn6 Ge6 Rh6'
_cell_volume   267.58047025
_cell_formula_units_Z   6
loop_
 _symmetry_equiv_pos_site_id
 _symmetry_equiv_pos_as_xyz
  1  'x, y, z'
loop_
 _atom_site_type_symbol
 _atom_site_label
 _atom_site_symmetry_multiplicity
 _atom_site_fract_x
 _atom_site_fract_y
 _atom_site_fract_z
 _atom_site_occupancy
  Mn  Mn0  1  0.48920923  0.44278544  0.38557087  1
  Mn  Mn1  1  0.10363835  0.55721456  0.61442913  1
  Mn  Mn2  1  0.05921371  0.03280628  0.56561256  1
  Mn  Mn3  1  0.49360115  0.96719372  0.43438744  1
  Mn  Mn4  1  0.89750043  0.24147159  0.98294318  1
  Mn  Mn5  1  0.91455725  0.75852841  0.01705682  1
  Ge  Ge6  1  0.47334529  0.22236319  0.94472637  1
  Ge  Ge7  1  0.82948430  0.34028033  0.66588232  1
  Ge  Ge8  1  0.16360197  0.65971967  0.33411768  1
  Ge  Ge9  1  0.52861892  0.77763681  0.05527363  1
  Ge  Ge10  1  0.82948430  0.82560199  0.66588232  1
  Ge  Ge11  1  0.16360197  0.17439801  0.33411768  1
  Rh  Rh12  1  0.23977962  0.50000000  0.00000000  1
  Rh  Rh13  1  0.23977962  0.00000000  0.00000000  1
  Rh  Rh14  1  0.50032727  0.83744795  0.74226258  1
  Rh  Rh15  1  0.75806468  0.59518537  0.25773742  1
  Rh  Rh16  1  0.50032727  0.40481463  0.74226258  1
  Rh  Rh17  1  0.75806468  0.16255205  0.25773742  1
