# generated using pymatgen
data_Sr3TbRhO6
_symmetry_space_group_name_H-M   'P 1'
_cell_length_a   6.86849018
_cell_length_b   6.86849018
_cell_length_c   6.86849018
_cell_angle_alpha   92.09282758
_cell_angle_beta   92.09282759
_cell_angle_gamma   92.09282763
_symmetry_Int_Tables_number   1
_chemical_formula_structural   Sr3TbRhO6
_chemical_formula_sum   'Sr6 Tb2 Rh2 O12'
_cell_volume   323.36431920
_cell_formula_units_Z   2
loop_
 _symmetry_equiv_pos_site_id
 _symmetry_equiv_pos_as_xyz
  1  'x, y, z'
loop_
 _atom_site_type_symbol
 _atom_site_label
 _atom_site_symmetry_multiplicity
 _atom_site_fract_x
 _atom_site_fract_y
 _atom_site_fract_z
 _atom_site_occupancy
  O  O0  1  0.79199067  0.58976055  0.45527217  1
  O  O1  1  0.58976055  0.45527217  0.79199067  1
  O  O2  1  0.45527217  0.79199067  0.58976055  1
  O  O3  1  0.04472783  0.91023945  0.70800933  1
  O  O4  1  0.91023945  0.70800933  0.04472783  1
  O  O5  1  0.70800933  0.04472783  0.91023945  1
  O  O6  1  0.20800933  0.41023945  0.54472783  1
  O  O7  1  0.41023945  0.54472783  0.20800933  1
  O  O8  1  0.54472783  0.20800933  0.41023945  1
  O  O9  1  0.95527217  0.08976055  0.29199067  1
  O  O10  1  0.29199067  0.95527217  0.08976055  1
  O  O11  1  0.08976055  0.29199067  0.95527217  1
  Sr  Sr12  1  0.61898454  0.88101546  0.25000000  1
  Sr  Sr13  1  0.25000000  0.61898454  0.88101546  1
  Sr  Sr14  1  0.88101546  0.25000000  0.61898454  1
  Sr  Sr15  1  0.38101546  0.11898454  0.75000000  1
  Sr  Sr16  1  0.11898454  0.75000000  0.38101546  1
  Sr  Sr17  1  0.75000000  0.38101546  0.11898454  1
  Rh  Rh18  1  0.50000000  0.50000000  0.50000000  1
  Rh  Rh19  1  0.00000000  0.00000000  0.00000000  1
  Tb  Tb20  1  0.75000000  0.75000000  0.75000000  1
  Tb  Tb21  1  0.25000000  0.25000000  0.25000000  1
