# generated using pymatgen
data_Li3CrSiO5
_symmetry_space_group_name_H-M   'P 1'
_cell_length_a   6.24905057
_cell_length_b   5.73268983
_cell_length_c   5.09717924
_cell_angle_alpha   106.49197820
_cell_angle_beta   76.03552084
_cell_angle_gamma   103.66330734
_symmetry_Int_Tables_number   1
_chemical_formula_structural   Li3CrSiO5
_chemical_formula_sum   'Li6 Cr2 Si2 O10'
_cell_volume   167.13126250
_cell_formula_units_Z   2
loop_
 _symmetry_equiv_pos_site_id
 _symmetry_equiv_pos_as_xyz
  1  'x, y, z'
loop_
 _atom_site_type_symbol
 _atom_site_label
 _atom_site_symmetry_multiplicity
 _atom_site_fract_x
 _atom_site_fract_y
 _atom_site_fract_z
 _atom_site_occupancy
  Li  Li0  1  0.99447370  0.75680259  0.51091206  1
  Li  Li1  1  0.40083278  0.55238484  0.29737668  1
  Li  Li2  1  0.39618067  0.05140886  0.31376424  1
  Li  Li3  1  0.60381933  0.94859114  0.68623576  1
  Li  Li4  1  0.59916722  0.44761516  0.70262332  1
  Li  Li5  1  0.00552630  0.24319741  0.48908794  1
  Cr  Cr6  1  0.21345157  0.65478979  0.90021639  1
  Cr  Cr7  1  0.78654843  0.34521021  0.09978361  1
  Si  Si8  1  0.21535768  0.15105528  0.89754421  1
  Si  Si9  1  0.78464232  0.84894472  0.10245579  1
  O  O10  1  0.28296367  0.88012221  0.64496302  1
  O  O11  1  0.28085290  0.33213456  0.64804306  1
  O  O12  1  0.09435052  0.95492259  0.15748909  1
  O  O13  1  0.47512419  0.24233935  0.00091077  1
  O  O14  1  0.10737838  0.42170431  0.15961856  1
  O  O15  1  0.89262162  0.57829569  0.84038144  1
  O  O16  1  0.52487581  0.75766065  0.99908923  1
  O  O17  1  0.90564948  0.04507741  0.84251091  1
  O  O18  1  0.71914710  0.66786544  0.35195694  1
  O  O19  1  0.71703633  0.11987779  0.35503698  1
