# generated using pymatgen
data_PrSc3(BO3)4
_symmetry_space_group_name_H-M   'P 1'
_cell_length_a   6.30886927
_cell_length_b   6.30886927
_cell_length_c   12.15966690
_cell_angle_alpha   99.44146836
_cell_angle_beta   99.44146839
_cell_angle_gamma   103.62072537
_symmetry_Int_Tables_number   1
_chemical_formula_structural   PrSc3(BO3)4
_chemical_formula_sum   'Pr2 Sc6 B8 O24'
_cell_volume   453.50754969
_cell_formula_units_Z   2
loop_
 _symmetry_equiv_pos_site_id
 _symmetry_equiv_pos_as_xyz
  1  'x, y, z'
loop_
 _atom_site_type_symbol
 _atom_site_label
 _atom_site_symmetry_multiplicity
 _atom_site_fract_x
 _atom_site_fract_y
 _atom_site_fract_z
 _atom_site_occupancy
  B  B0  1  0.77833872  0.72967602  0.49958688  1
  B  B1  1  0.27032398  0.22166128  0.00041312  1
  B  B2  1  0.22166128  0.27032398  0.50041312  1
  B  B3  1  0.72967602  0.77833872  0.99958688  1
  B  B4  1  0.10104868  0.49501268  0.27375923  1
  B  B5  1  0.50498732  0.89895132  0.22624077  1
  B  B6  1  0.89895132  0.50498732  0.72624077  1
  B  B7  1  0.49501268  0.10104868  0.77375923  1
  O  O8  1  0.43130680  0.88898305  0.70473670  1
  O  O9  1  0.11101695  0.56869320  0.79526330  1
  O  O10  1  0.56869320  0.11101695  0.29526330  1
  O  O11  1  0.88898305  0.43130680  0.20473670  1
  O  O12  1  0.18688400  0.00894668  0.93226791  1
  O  O13  1  0.99105332  0.81311600  0.56773209  1
  O  O14  1  0.81311600  0.99105332  0.06773209  1
  O  O15  1  0.00894668  0.18688400  0.43226791  1
  O  O16  1  0.23961199  0.35659440  0.26091620  1
  O  O17  1  0.64340560  0.76038801  0.23908380  1
  O  O18  1  0.76038801  0.64340560  0.73908380  1
  O  O19  1  0.35659440  0.23961199  0.76091620  1
  O  O20  1  0.63601416  0.86712828  0.50362599  1
  O  O21  1  0.13287172  0.36398584  0.99637401  1
  O  O22  1  0.36398584  0.13287172  0.49637401  1
  O  O23  1  0.86712828  0.63601416  0.00362599  1
  O  O24  1  0.69653725  0.16324328  0.85089415  1
  O  O25  1  0.83675672  0.30346275  0.64910585  1
  O  O26  1  0.30346275  0.83675672  0.14910585  1
  O  O27  1  0.16324328  0.69653725  0.35089415  1
  O  O28  1  0.51633171  0.70771572  0.93184715  1
  O  O29  1  0.29228428  0.48366829  0.56815285  1
  O  O30  1  0.48366829  0.29228428  0.06815285  1
  O  O31  1  0.70771572  0.51633171  0.43184715  1
  Sc  Sc32  1  0.20235110  0.70303093  0.97552447  1
  Sc  Sc33  1  0.29696907  0.79764890  0.52447553  1
  Sc  Sc34  1  0.79764890  0.29696907  0.02447553  1
  Sc  Sc35  1  0.70303093  0.20235110  0.47552447  1
  Sc  Sc36  1  0.57419808  0.42580192  0.25000000  1
  Sc  Sc37  1  0.42580192  0.57419808  0.75000000  1
  Pr  Pr38  1  0.03213986  0.96786014  0.25000000  1
  Pr  Pr39  1  0.96786014  0.03213986  0.75000000  1
