# generated using pymatgen
data_Rb2Ni3Se4
_symmetry_space_group_name_H-M   'P 1'
_cell_length_a   6.11080818
_cell_length_b   6.15445695
_cell_length_c   14.40108443
_cell_angle_alpha   83.95381630
_cell_angle_beta   77.75075113
_cell_angle_gamma   60.23433286
_symmetry_Int_Tables_number   1
_chemical_formula_structural   Rb2Ni3Se4
_chemical_formula_sum   'Rb4 Ni6 Se8'
_cell_volume   459.44486019
_cell_formula_units_Z   2
loop_
 _symmetry_equiv_pos_site_id
 _symmetry_equiv_pos_as_xyz
  1  'x, y, z'
loop_
 _atom_site_type_symbol
 _atom_site_label
 _atom_site_symmetry_multiplicity
 _atom_site_fract_x
 _atom_site_fract_y
 _atom_site_fract_z
 _atom_site_occupancy
  Ni  Ni0  1  0.87549056  0.75000000  0.24901888  1
  Ni  Ni1  1  0.37450944  0.75000000  0.25098112  1
  Ni  Ni2  1  0.12450944  0.25000000  0.75098112  1
  Ni  Ni3  1  0.12500000  0.75000000  0.75000000  1
  Ni  Ni4  1  0.87500000  0.25000000  0.25000000  1
  Ni  Ni5  1  0.62549056  0.25000000  0.74901888  1
  Se  Se6  1  0.23975702  0.41748795  0.85886049  1
  Se  Se7  1  0.01610547  0.08251205  0.64113951  1
  Se  Se8  1  0.34275503  0.41748795  0.64113951  1
  Se  Se9  1  0.90138249  0.08251205  0.85886049  1
  Se  Se10  1  0.76024298  0.58251205  0.14113951  1
  Se  Se11  1  0.98389453  0.91748795  0.35886049  1
  Se  Se12  1  0.65724497  0.58251205  0.35886049  1
  Se  Se13  1  0.09861751  0.91748795  0.14113951  1
  Rb  Rb14  1  0.54914397  0.75000000  0.90171207  1
  Rb  Rb15  1  0.70085603  0.75000000  0.59828793  1
  Rb  Rb16  1  0.45085603  0.25000000  0.09828793  1
  Rb  Rb17  1  0.29914397  0.25000000  0.40171207  1
