# generated using pymatgen
data_Ba3YRu2O9
_symmetry_space_group_name_H-M   'P 1'
_cell_length_a   5.96212268
_cell_length_b   5.96212268
_cell_length_c   14.61735585
_cell_angle_alpha   90.00000000
_cell_angle_beta   90.00000000
_cell_angle_gamma   120.00000001
_symmetry_Int_Tables_number   1
_chemical_formula_structural   Ba3YRu2O9
_chemical_formula_sum   'Ba6 Y2 Ru4 O18'
_cell_volume   449.98834711
_cell_formula_units_Z   2
loop_
 _symmetry_equiv_pos_site_id
 _symmetry_equiv_pos_as_xyz
  1  'x, y, z'
loop_
 _atom_site_type_symbol
 _atom_site_label
 _atom_site_symmetry_multiplicity
 _atom_site_fract_x
 _atom_site_fract_y
 _atom_site_fract_z
 _atom_site_occupancy
  O  O0  1  0.17622645  0.82377355  0.08834779  1
  O  O1  1  0.17622645  0.35245291  0.08834779  1
  O  O2  1  0.64754709  0.82377355  0.08834779  1
  O  O3  1  0.35245291  0.17622645  0.58834779  1
  O  O4  1  0.82377355  0.64754709  0.91165221  1
  O  O5  1  0.82377355  0.17622645  0.58834779  1
  O  O6  1  0.82377355  0.64754709  0.58834779  1
  O  O7  1  0.17622645  0.82377355  0.41165221  1
  O  O8  1  0.64754709  0.82377355  0.41165221  1
  O  O9  1  0.35245291  0.17622645  0.91165221  1
  O  O10  1  0.82377355  0.17622645  0.91165221  1
  O  O11  1  0.17622645  0.35245291  0.41165221  1
  O  O12  1  0.49011078  0.98022156  0.25000000  1
  O  O13  1  0.50988922  0.49011078  0.75000000  1
  O  O14  1  0.98022156  0.49011078  0.75000000  1
  O  O15  1  0.01977844  0.50988922  0.25000000  1
  O  O16  1  0.49011078  0.50988922  0.25000000  1
  O  O17  1  0.50988922  0.01977844  0.75000000  1
  Y  Y18  1  0.00000000  0.00000000  0.00000000  1
  Y  Y19  1  0.00000000  0.00000000  0.50000000  1
  Ru  Ru20  1  0.66666667  0.33333333  0.66439871  1
  Ru  Ru21  1  0.33333333  0.66666667  0.16439871  1
  Ru  Ru22  1  0.66666667  0.33333333  0.83560129  1
  Ru  Ru23  1  0.33333333  0.66666667  0.33560129  1
  Ba  Ba24  1  0.33333333  0.66666667  0.59463460  1
  Ba  Ba25  1  0.66666667  0.33333333  0.09463460  1
  Ba  Ba26  1  0.66666667  0.33333333  0.40536540  1
  Ba  Ba27  1  0.33333333  0.66666667  0.90536540  1
  Ba  Ba28  1  0.00000000  0.00000000  0.75000000  1
  Ba  Ba29  1  0.00000000  0.00000000  0.25000000  1
