# generated using pymatgen
data_Nd2Ge5Rh3
_symmetry_space_group_name_H-M   'P 1'
_cell_length_a   6.08747939
_cell_length_b   8.48578415
_cell_length_c   8.48578379
_cell_angle_alpha   91.19883740
_cell_angle_beta   111.09280359
_cell_angle_gamma   111.09279931
_symmetry_Int_Tables_number   1
_chemical_formula_structural   Nd2Ge5Rh3
_chemical_formula_sum   'Nd4 Ge10 Rh6'
_cell_volume   375.83693126
_cell_formula_units_Z   2
loop_
 _symmetry_equiv_pos_site_id
 _symmetry_equiv_pos_as_xyz
  1  'x, y, z'
loop_
 _atom_site_type_symbol
 _atom_site_label
 _atom_site_symmetry_multiplicity
 _atom_site_fract_x
 _atom_site_fract_y
 _atom_site_fract_z
 _atom_site_occupancy
  Nd  Nd0  1  0.23107044  0.86460545  0.59805667  1
  Nd  Nd1  1  0.26892956  0.40194333  0.13539455  1
  Nd  Nd2  1  0.76892956  0.13539455  0.40194333  1
  Nd  Nd3  1  0.73107044  0.59805667  0.86460545  1
  Ge  Ge4  1  0.25000000  0.49929636  0.50070364  1
  Ge  Ge5  1  0.75000000  0.50070364  0.49929636  1
  Ge  Ge6  1  0.16028468  0.06121460  0.25946898  1
  Ge  Ge7  1  0.33971532  0.74053102  0.93878540  1
  Ge  Ge8  1  0.83971532  0.93878540  0.74053102  1
  Ge  Ge9  1  0.66028468  0.25946898  0.06121460  1
  Ge  Ge10  1  0.25000000  0.77732909  0.22267091  1
  Ge  Ge11  1  0.75000000  0.77602361  0.22397639  1
  Ge  Ge12  1  0.25000000  0.22397639  0.77602361  1
  Ge  Ge13  1  0.75000000  0.22267091  0.77732909  1
  Rh  Rh14  1  0.75000000  0.00016764  0.99983236  1
  Rh  Rh15  1  0.10530500  0.46617758  0.74725753  1
  Rh  Rh16  1  0.60530500  0.74725753  0.46617758  1
  Rh  Rh17  1  0.89469500  0.53382242  0.25274247  1
  Rh  Rh18  1  0.25000000  0.99983236  0.00016764  1
  Rh  Rh19  1  0.39469500  0.25274247  0.53382242  1
