# generated using pymatgen
data_AgPO3
_symmetry_space_group_name_H-M   'P 1'
_cell_length_a   6.05356100
_cell_length_b   7.50292461
_cell_length_c   12.41789777
_cell_angle_alpha   92.68864420
_cell_angle_beta   90.00000000
_cell_angle_gamma   90.00000000
_symmetry_Int_Tables_number   1
_chemical_formula_structural   AgPO3
_chemical_formula_sum   'Ag8 P8 O24'
_cell_volume   563.39274149
_cell_formula_units_Z   8
loop_
 _symmetry_equiv_pos_site_id
 _symmetry_equiv_pos_as_xyz
  1  'x, y, z'
loop_
 _atom_site_type_symbol
 _atom_site_label
 _atom_site_symmetry_multiplicity
 _atom_site_fract_x
 _atom_site_fract_y
 _atom_site_fract_z
 _atom_site_occupancy
  O  O0  1  0.02679093  0.80019208  0.54556907  1
  O  O1  1  0.52679093  0.69980792  0.95443093  1
  O  O2  1  0.97320907  0.19980792  0.45443093  1
  O  O3  1  0.47320907  0.30019208  0.04556907  1
  O  O4  1  0.69959575  0.57821892  0.55669742  1
  O  O5  1  0.19959575  0.92178108  0.94330258  1
  O  O6  1  0.30040425  0.42178108  0.44330258  1
  O  O7  1  0.80040425  0.07821892  0.05669742  1
  O  O8  1  0.03732170  0.53155724  0.66668347  1
  O  O9  1  0.53732170  0.96844276  0.83331653  1
  O  O10  1  0.96267830  0.46844276  0.33331653  1
  O  O11  1  0.46267830  0.03155724  0.16668347  1
  O  O12  1  0.53048400  0.99753204  0.62761657  1
  O  O13  1  0.03048400  0.50246796  0.87238343  1
  O  O14  1  0.46951600  0.00246796  0.37238343  1
  O  O15  1  0.96951600  0.49753204  0.12761657  1
  O  O16  1  0.65303465  0.62941997  0.24758911  1
  O  O17  1  0.15303465  0.87058003  0.25241089  1
  O  O18  1  0.34696535  0.37058003  0.75241089  1
  O  O19  1  0.84696535  0.12941997  0.74758911  1
  O  O20  1  0.70126975  0.28985980  0.21853063  1
  O  O21  1  0.20126975  0.21014020  0.28146937  1
  O  O22  1  0.29873025  0.71014020  0.78146937  1
  O  O23  1  0.79873025  0.78985980  0.71853063  1
  P  P24  1  0.88619028  0.67861851  0.61127782  1
  P  P25  1  0.38619028  0.82138149  0.88872218  1
  P  P26  1  0.11380972  0.32138149  0.38872218  1
  P  P27  1  0.61380972  0.17861851  0.11127782  1
  P  P28  1  0.68004835  0.98370789  0.72475266  1
  P  P29  1  0.18004835  0.51629211  0.77524734  1
  P  P30  1  0.31995165  0.01629211  0.27524734  1
  P  P31  1  0.81995165  0.48370789  0.22475266  1
  Ag  Ag32  1  0.58873284  0.26824721  0.53350083  1
  Ag  Ag33  1  0.08873284  0.23175279  0.96649917  1
  Ag  Ag34  1  0.41126716  0.73175279  0.46649917  1
  Ag  Ag35  1  0.91126716  0.76824721  0.03350083  1
  Ag  Ag36  1  0.16039516  0.12342257  0.62434005  1
  Ag  Ag37  1  0.66039516  0.37657743  0.87565995  1
  Ag  Ag38  1  0.83960484  0.87657743  0.37565995  1
  Ag  Ag39  1  0.33960484  0.62342257  0.12434005  1
