# generated using pymatgen
data_K4SiO4
_symmetry_space_group_name_H-M   'P 1'
_cell_length_a   6.51615650
_cell_length_b   10.47173118
_cell_length_c   10.47765368
_cell_angle_alpha   112.16774553
_cell_angle_beta   90.00000000
_cell_angle_gamma   90.00000000
_symmetry_Int_Tables_number   1
_chemical_formula_structural   K4SiO4
_chemical_formula_sum   'K16 Si4 O16'
_cell_volume   662.10064305
_cell_formula_units_Z   4
loop_
 _symmetry_equiv_pos_site_id
 _symmetry_equiv_pos_as_xyz
  1  'x, y, z'
loop_
 _atom_site_type_symbol
 _atom_site_label
 _atom_site_symmetry_multiplicity
 _atom_site_fract_x
 _atom_site_fract_y
 _atom_site_fract_z
 _atom_site_occupancy
  O  O0  1  0.76085913  0.03100557  0.90865621  1
  O  O1  1  0.99808094  0.84889153  0.22331790  1
  O  O2  1  0.49808094  0.65110847  0.77668210  1
  O  O3  1  0.00191906  0.15110847  0.77668210  1
  O  O4  1  0.26085913  0.46899443  0.09134379  1
  O  O5  1  0.23914087  0.96899443  0.09134379  1
  O  O6  1  0.73914087  0.53100557  0.90865621  1
  O  O7  1  0.68232949  0.98433488  0.63999974  1
  O  O8  1  0.18232949  0.51566512  0.36000026  1
  O  O9  1  0.31767051  0.01566512  0.36000026  1
  O  O10  1  0.81767051  0.48433488  0.63999974  1
  O  O11  1  0.97800459  0.13024467  0.29663146  1
  O  O12  1  0.47800459  0.36975533  0.70336854  1
  O  O13  1  0.02199541  0.86975533  0.70336854  1
  O  O14  1  0.52199541  0.63024467  0.29663146  1
  O  O15  1  0.50191906  0.34889153  0.22331790  1
  Si  Si16  1  0.63146770  0.50889321  0.75734863  1
  Si  Si17  1  0.13146770  0.99110679  0.24265137  1
  Si  Si18  1  0.86853230  0.00889321  0.75734863  1
  Si  Si19  1  0.36853230  0.49110679  0.24265137  1
  K  K20  1  0.33799587  0.10978338  0.63374228  1
  K  K21  1  0.66200413  0.89021662  0.36625772  1
  K  K22  1  0.16200413  0.60978338  0.63374228  1
  K  K23  1  0.40661050  0.69446264  0.06008912  1
  K  K24  1  0.90661050  0.80553736  0.93991088  1
  K  K25  1  0.59338950  0.30553736  0.93991088  1
  K  K26  1  0.09338950  0.19446264  0.06008912  1
  K  K27  1  0.38950286  0.91315015  0.84245214  1
  K  K28  1  0.88950286  0.58684985  0.15754786  1
  K  K29  1  0.61049714  0.08684985  0.15754786  1
  K  K30  1  0.11049714  0.41315015  0.84245214  1
  K  K31  1  0.31580845  0.29666084  0.42674714  1
  K  K32  1  0.81580845  0.20333916  0.57325286  1
  K  K33  1  0.68419155  0.70333916  0.57325286  1
  K  K34  1  0.18419155  0.79666084  0.42674714  1
  K  K35  1  0.83799587  0.39021662  0.36625772  1
