# generated using pymatgen
data_CsPr(CO3)2
_symmetry_space_group_name_H-M   'P 1'
_cell_length_a   8.71498575
_cell_length_b   9.04298720
_cell_length_c   9.03950506
_cell_angle_alpha   98.93797373
_cell_angle_beta   96.31818919
_cell_angle_gamma   114.64703351
_symmetry_Int_Tables_number   1
_chemical_formula_structural   CsPr(CO3)2
_chemical_formula_sum   'Cs4 Pr4 C8 O24'
_cell_volume   627.38791890
_cell_formula_units_Z   4
loop_
 _symmetry_equiv_pos_site_id
 _symmetry_equiv_pos_as_xyz
  1  'x, y, z'
loop_
 _atom_site_type_symbol
 _atom_site_label
 _atom_site_symmetry_multiplicity
 _atom_site_fract_x
 _atom_site_fract_y
 _atom_site_fract_z
 _atom_site_occupancy
  C  C0  1  0.97010849  0.70464230  0.71045576  1
  C  C1  1  0.02989151  0.29535770  0.28954424  1
  C  C2  1  0.54134824  0.14155283  0.74166448  1
  C  C3  1  0.99712737  0.27422450  0.78775887  1
  C  C4  1  0.00287263  0.72577550  0.21224113  1
  C  C5  1  0.45865176  0.85844717  0.25833552  1
  C  C6  1  0.58180010  0.39558343  0.23175813  1
  C  C7  1  0.41819990  0.60441657  0.76824187  1
  O  O8  1  0.93458932  0.57505380  0.59992540  1
  O  O9  1  0.49659090  0.56351823  0.87400920  1
  O  O10  1  0.72277738  0.38338475  0.20883308  1
  O  O11  1  0.27722262  0.61661525  0.79116692  1
  O  O12  1  0.47108114  0.63414635  0.64361801  1
  O  O13  1  0.52891886  0.36585365  0.35638199  1
  O  O14  1  0.06541068  0.42494620  0.40007460  1
  O  O15  1  0.50340910  0.43648177  0.12599080  1
  O  O16  1  0.04341028  0.62816948  0.11758270  1
  O  O17  1  0.95658972  0.37183052  0.88241730  1
  O  O18  1  0.13464052  0.25938557  0.83596839  1
  O  O19  1  0.86535948  0.74061443  0.16403161  1
  O  O20  1  0.09462665  0.80281857  0.34727062  1
  O  O21  1  0.90537335  0.19718143  0.65272938  1
  O  O22  1  0.90142707  0.15683509  0.29475670  1
  O  O23  1  0.11876083  0.30452687  0.18467550  1
  O  O24  1  0.60345642  0.27214444  0.67933852  1
  O  O25  1  0.39654358  0.72785556  0.32066148  1
  O  O26  1  0.56242302  0.17161774  0.88926332  1
  O  O27  1  0.43757698  0.82838226  0.11073668  1
  O  O28  1  0.53826069  0.00709368  0.34105413  1
  O  O29  1  0.46173931  0.99290632  0.65894587  1
  O  O30  1  0.88123917  0.69547313  0.81532450  1
  O  O31  1  0.09857293  0.84316491  0.70524330  1
  Cs  Cs32  1  0.24528615  0.03139419  0.02976027  1
  Cs  Cs33  1  0.75471385  0.96860581  0.97023973  1
  Cs  Cs34  1  0.24069331  0.19007204  0.52696235  1
  Cs  Cs35  1  0.75930669  0.80992796  0.47303765  1
  Pr  Pr36  1  0.26021475  0.52204515  0.04782633  1
  Pr  Pr37  1  0.73978525  0.47795485  0.95217367  1
  Pr  Pr38  1  0.24132828  0.71454864  0.54075306  1
  Pr  Pr39  1  0.75867172  0.28545136  0.45924694  1
