# generated using pymatgen
data_CsLiBeF4
_symmetry_space_group_name_H-M   'P 1'
_cell_length_a   5.44790940
_cell_length_b   8.97822767
_cell_length_c   9.39797609
_cell_angle_alpha   90.00000000
_cell_angle_beta   90.48952758
_cell_angle_gamma   90.00000000
_symmetry_Int_Tables_number   1
_chemical_formula_structural   CsLiBeF4
_chemical_formula_sum   'Cs4 Li4 Be4 F16'
_cell_volume   459.66239441
_cell_formula_units_Z   4
loop_
 _symmetry_equiv_pos_site_id
 _symmetry_equiv_pos_as_xyz
  1  'x, y, z'
loop_
 _atom_site_type_symbol
 _atom_site_label
 _atom_site_symmetry_multiplicity
 _atom_site_fract_x
 _atom_site_fract_y
 _atom_site_fract_z
 _atom_site_occupancy
  Li  Li0  1  0.25680385  0.18499147  0.91875895  1
  Li  Li1  1  0.24319615  0.68499147  0.58124105  1
  Li  Li2  1  0.74319615  0.81500853  0.08124105  1
  Li  Li3  1  0.75680385  0.31500853  0.41875895  1
  Be  Be4  1  0.75715090  0.19880334  0.08507985  1
  Be  Be5  1  0.74284910  0.69880334  0.41492015  1
  Be  Be6  1  0.24284910  0.80119666  0.91492015  1
  Be  Be7  1  0.25715090  0.30119666  0.58507985  1
  F  F8  1  0.84611939  0.25492873  0.23486737  1
  F  F9  1  0.65388061  0.75492873  0.26513263  1
  F  F10  1  0.15388061  0.74507127  0.76513263  1
  F  F11  1  0.34611939  0.24507127  0.73486737  1
  F  F12  1  0.75021685  0.02456341  0.08656431  1
  F  F13  1  0.74978315  0.52456341  0.41343569  1
  F  F14  1  0.24978315  0.97543659  0.91343569  1
  F  F15  1  0.25021685  0.47543659  0.58656431  1
  F  F16  1  0.94203260  0.25507668  0.96895205  1
  F  F17  1  0.55796740  0.75507668  0.53104795  1
  F  F18  1  0.05796740  0.74492332  0.03104795  1
  F  F19  1  0.44203260  0.24492332  0.46895205  1
  F  F20  1  0.49288240  0.25990278  0.05026503  1
  F  F21  1  0.00711760  0.75990278  0.44973497  1
  F  F22  1  0.50711760  0.74009722  0.94973497  1
  F  F23  1  0.99288240  0.24009722  0.55026503  1
  Cs  Cs24  1  0.74875077  0.49822739  0.77404510  1
  Cs  Cs25  1  0.75124923  0.99822739  0.72595490  1
  Cs  Cs26  1  0.25124923  0.50177261  0.22595490  1
  Cs  Cs27  1  0.24875077  0.00177261  0.27404510  1
