# generated using pymatgen
data_LiNd(PO3)4
_symmetry_space_group_name_H-M   'P 1'
_cell_length_a   7.17606257
_cell_length_b   9.08885525
_cell_length_c   9.08671020
_cell_angle_alpha   66.12783783
_cell_angle_beta   66.74239403
_cell_angle_gamma   66.74820571
_symmetry_Int_Tables_number   1
_chemical_formula_structural   LiNd(PO3)4
_chemical_formula_sum   'Li2 Nd2 P8 O24'
_cell_volume   478.04385520
_cell_formula_units_Z   2
loop_
 _symmetry_equiv_pos_site_id
 _symmetry_equiv_pos_as_xyz
  1  'x, y, z'
loop_
 _atom_site_type_symbol
 _atom_site_label
 _atom_site_symmetry_multiplicity
 _atom_site_fract_x
 _atom_site_fract_y
 _atom_site_fract_z
 _atom_site_occupancy
  Li  Li0  1  0.29673483  0.25000000  0.25000000  1
  Li  Li1  1  0.70326517  0.75000000  0.75000000  1
  O  O2  1  0.21970311  0.23046789  0.58679339  1
  O  O3  1  0.53696440  0.26953211  0.91320661  1
  O  O4  1  0.78029689  0.76953211  0.41320661  1
  O  O5  1  0.46303560  0.73046789  0.08679339  1
  O  O6  1  0.34013898  0.14780649  0.84149588  1
  O  O7  1  0.82944135  0.35219351  0.65850412  1
  O  O8  1  0.65986102  0.85219351  0.15850412  1
  O  O9  1  0.17055865  0.64780649  0.34149588  1
  O  O10  1  0.42641938  0.43008046  0.20521822  1
  O  O11  1  0.56171806  0.06991954  0.29478178  1
  O  O12  1  0.57358062  0.56991954  0.79478178  1
  O  O13  1  0.43828194  0.93008046  0.70521822  1
  O  O14  1  0.17261321  0.68001752  0.04638373  1
  O  O15  1  0.39901446  0.81998248  0.45361627  1
  O  O16  1  0.82738679  0.31998248  0.95361627  1
  O  O17  1  0.60098554  0.18001752  0.54638373  1
  O  O18  1  0.75913636  0.53258387  0.22219597  1
  O  O19  1  0.01391619  0.96741613  0.27780403  1
  O  O20  1  0.24086364  0.46741613  0.77780403  1
  O  O21  1  0.98608381  0.03258387  0.72219597  1
  O  O22  1  0.83105566  0.73174004  0.91782257  1
  O  O23  1  0.98061827  0.76825996  0.58217743  1
  O  O24  1  0.16894434  0.26825996  0.08217743  1
  O  O25  1  0.01938173  0.23174004  0.41782257  1
  P  P26  1  0.00804789  0.19806437  0.59707313  1
  P  P27  1  0.30318540  0.30193563  0.90292687  1
  P  P28  1  0.99195211  0.80193563  0.40292687  1
  P  P29  1  0.69681460  0.69806437  0.09707313  1
  P  P30  1  0.41605031  0.11402638  0.66286321  1
  P  P31  1  0.69293989  0.38597362  0.83713679  1
  P  P32  1  0.58394969  0.88597362  0.33713679  1
  P  P33  1  0.30706011  0.61402638  0.16286321  1
  Nd  Nd34  1  0.79807550  0.25000000  0.25000000  1
  Nd  Nd35  1  0.20192450  0.75000000  0.75000000  1
