# generated using pymatgen
data_Li4V2Fe3Ni3O16
_symmetry_space_group_name_H-M   'P 1'
_cell_length_a   5.85862365
_cell_length_b   5.85597412
_cell_length_c   9.49299895
_cell_angle_alpha   89.98780369
_cell_angle_beta   87.85474910
_cell_angle_gamma   119.97999820
_symmetry_Int_Tables_number   1
_chemical_formula_structural   Li4V2Fe3Ni3O16
_chemical_formula_sum   'Li4 V2 Fe3 Ni3 O16'
_cell_volume   281.84353515
_cell_formula_units_Z   1
loop_
 _symmetry_equiv_pos_site_id
 _symmetry_equiv_pos_as_xyz
  1  'x, y, z'
loop_
 _atom_site_type_symbol
 _atom_site_label
 _atom_site_symmetry_multiplicity
 _atom_site_fract_x
 _atom_site_fract_y
 _atom_site_fract_z
 _atom_site_occupancy
  Li  Li0  1  0.34143024  0.67079953  0.89804640  1
  Li  Li1  1  0.99309212  0.99681934  0.99008818  1
  Li  Li2  1  0.00535160  0.00267334  0.49375374  1
  Li  Li3  1  0.66722340  0.33372580  0.40424503  1
  V  V4  1  0.34983071  0.67496940  0.49260144  1
  V  V5  1  0.70004271  0.35018142  0.98969435  1
  Fe  Fe6  1  0.17870693  0.83448538  0.21654957  1
  Fe  Fe7  1  0.17872063  0.34422547  0.21657796  1
  Fe  Fe8  1  0.34013828  0.17013208  0.71890961  1
  Ni  Ni9  1  0.65778488  0.82888960  0.21446488  1
  Ni  Ni10  1  0.83050441  0.65650657  0.71290429  1
  Ni  Ni11  1  0.83055784  0.17390642  0.71292303  1
  O  O12  1  0.16043637  0.82176660  0.59528508  1
  O  O13  1  0.03119393  0.51559839  0.34047188  1
  O  O14  1  0.33434953  0.66717479  0.10450180  1
  O  O15  1  0.99707260  0.99848018  0.30349227  1
  O  O16  1  0.97745604  0.98867794  0.79976582  1
  O  O17  1  0.16048640  0.33844005  0.59533646  1
  O  O18  1  0.46633557  0.95708544  0.35674075  1
  O  O19  1  0.46625805  0.50915895  0.35673378  1
  O  O20  1  0.33981056  0.16996881  0.08781269  1
  O  O21  1  0.64028294  0.82003840  0.58481778  1
  O  O22  1  0.52776738  0.48553014  0.84047091  1
  O  O23  1  0.52770055  0.04225425  0.84039596  1
  O  O24  1  0.68153000  0.34077187  0.61038530  1
  O  O25  1  0.82593941  0.65037192  0.08881873  1
  O  O26  1  0.96412358  0.48200123  0.85318914  1
  O  O27  1  0.82587434  0.17566669  0.08886017  1
