# generated using pymatgen
data_Mn2PO4F
_symmetry_space_group_name_H-M   'P 1'
_cell_length_a   6.60906853
_cell_length_b   7.57193123
_cell_length_c   9.60835259
_cell_angle_alpha   72.12766897
_cell_angle_beta   69.88392927
_cell_angle_gamma   64.12438184
_symmetry_Int_Tables_number   1
_chemical_formula_structural   Mn2PO4F
_chemical_formula_sum   'Mn8 P4 O16 F4'
_cell_volume   399.17879528
_cell_formula_units_Z   4
loop_
 _symmetry_equiv_pos_site_id
 _symmetry_equiv_pos_as_xyz
  1  'x, y, z'
loop_
 _atom_site_type_symbol
 _atom_site_label
 _atom_site_symmetry_multiplicity
 _atom_site_fract_x
 _atom_site_fract_y
 _atom_site_fract_z
 _atom_site_occupancy
  O  O0  1  0.22388080  0.47199137  0.91636886  1
  O  O1  1  0.61223997  0.02800742  0.58363136  1
  O  O2  1  0.77611979  0.52800788  0.08363187  1
  O  O3  1  0.38775902  0.97199183  0.41636871  1
  O  O4  1  0.91408970  0.09120381  0.64269258  1
  O  O5  1  0.64798676  0.40879648  0.85730719  1
  O  O6  1  0.08591025  0.90879694  0.35730689  1
  O  O7  1  0.35201320  0.59120427  0.14269227  1
  O  O8  1  0.93506976  0.73356018  0.68962170  1
  O  O9  1  0.35825078  0.76643945  0.81037864  1
  O  O10  1  0.06493084  0.26643907  0.31037799  1
  O  O11  1  0.64174755  0.23356131  0.18962226  1
  O  O12  1  0.62244576  0.97494506  0.85747421  1
  O  O13  1  0.45486568  0.52505456  0.64252502  1
  O  O14  1  0.37755484  0.02505419  0.14252548  1
  O  O15  1  0.54513491  0.47494469  0.35747467  1
  F  F16  1  0.08517380  0.13541679  0.89102213  1
  F  F17  1  0.11161409  0.36458200  0.60897791  1
  F  F18  1  0.91482518  0.86458246  0.10897794  1
  F  F19  1  0.88838651  0.63541725  0.39102177  1
  P  P20  1  0.77069497  0.95488307  0.69376588  1
  P  P21  1  0.41934532  0.54511656  0.80623429  1
  P  P22  1  0.22930401  0.04511618  0.30623419  1
  P  P23  1  0.58065463  0.45488420  0.19376622  1
  Mn  Mn24  1  0.21188187  0.61698355  0.49821204  1
  Mn  Mn25  1  0.32707733  0.88301766  0.00178776  1
  Mn  Mn26  1  0.78811808  0.38301720  0.50178743  1
  Mn  Mn27  1  0.67292263  0.11698309  0.99821171  1
  Mn  Mn28  1  0.94790025  0.45927953  0.85205851  1
  Mn  Mn29  1  0.25923854  0.04072076  0.64794127  1
  Mn  Mn30  1  0.05209971  0.54072122  0.14794096  1
  Mn  Mn31  1  0.74076142  0.95927999  0.35205819  1
