# generated using pymatgen
data_V2Co(PO5)2
_symmetry_space_group_name_H-M   'P 1'
_cell_length_a   6.43685221
_cell_length_b   7.45086367
_cell_length_c   7.37949097
_cell_angle_alpha   90.00000000
_cell_angle_beta   90.04420659
_cell_angle_gamma   90.00000000
_symmetry_Int_Tables_number   1
_chemical_formula_structural   V2Co(PO5)2
_chemical_formula_sum   'V4 Co2 P4 O20'
_cell_volume   353.92108110
_cell_formula_units_Z   2
loop_
 _symmetry_equiv_pos_site_id
 _symmetry_equiv_pos_as_xyz
  1  'x, y, z'
loop_
 _atom_site_type_symbol
 _atom_site_label
 _atom_site_symmetry_multiplicity
 _atom_site_fract_x
 _atom_site_fract_y
 _atom_site_fract_z
 _atom_site_occupancy
  O  O0  1  0.93987659  0.74932874  0.62098237  1
  O  O1  1  0.06012413  0.24932897  0.87901796  1
  O  O2  1  0.06012460  0.25067080  0.37901870  1
  O  O3  1  0.93987550  0.75067194  0.12098180  1
  O  O4  1  0.44330761  0.24207835  0.35289832  1
  O  O5  1  0.55669249  0.74207812  0.14710218  1
  O  O6  1  0.55669359  0.75792119  0.64710144  1
  O  O7  1  0.44330714  0.25792142  0.85289758  1
  O  O8  1  0.26059752  0.00950778  0.54694839  1
  O  O9  1  0.73940320  0.50950892  0.95305193  1
  O  O10  1  0.76938754  0.16621954  0.11056758  1
  O  O11  1  0.23061257  0.66621931  0.38943292  1
  O  O12  1  0.23061367  0.83378000  0.88943218  1
  O  O13  1  0.76938707  0.33378023  0.61056684  1
  O  O14  1  0.77796562  0.00494907  0.79414503  1
  O  O15  1  0.73940369  0.99049176  0.45305136  1
  O  O16  1  0.22203402  0.99505184  0.20585472  1
  O  O17  1  0.77796609  0.49505070  0.29414577  1
  O  O18  1  0.26059642  0.49049199  0.04694913  1
  O  O19  1  0.22203355  0.50494884  0.70585398  1
  P  P20  1  0.25086497  0.37814764  0.87307567  1
  P  P21  1  0.74913575  0.87814741  0.62692466  1
  P  P22  1  0.74913624  0.62185190  0.12692409  1
  P  P23  1  0.25086388  0.12185213  0.37307509  1
  V  V24  1  0.74209545  0.27851598  0.83579929  1
  V  V25  1  0.74209436  0.22148379  0.33579872  1
  V  V26  1  0.25790576  0.72148493  0.16420046  1
  V  V27  1  0.25790527  0.77851575  0.66420104  1
  Co  Co28  1  0.99999951  0.49999977  0.50000057  1
  Co  Co29  1  0.00000000  0.00000000  0.00000000  1
