# generated using pymatgen
data_Fe3P
_symmetry_space_group_name_H-M   'P 1'
_cell_length_a   4.38763975
_cell_length_b   6.76178950
_cell_length_c   6.76178949
_cell_angle_alpha   83.95764023
_cell_angle_beta   71.06812595
_cell_angle_gamma   71.06812604
_symmetry_Int_Tables_number   1
_chemical_formula_structural   Fe3P
_chemical_formula_sum   'Fe12 P4'
_cell_volume   179.49374176
_cell_formula_units_Z   4
loop_
 _symmetry_equiv_pos_site_id
 _symmetry_equiv_pos_as_xyz
  1  'x, y, z'
loop_
 _atom_site_type_symbol
 _atom_site_label
 _atom_site_symmetry_multiplicity
 _atom_site_fract_x
 _atom_site_fract_y
 _atom_site_fract_z
 _atom_site_occupancy
  P  P0  1  0.20215598  0.24620775  0.33622684  1
  P  P1  1  0.46161718  0.33622684  0.75379225  1
  P  P2  1  0.55163627  0.66377316  0.24620775  1
  P  P3  1  0.78459056  0.75379225  0.66377316  1
  Fe  Fe4  1  0.35211646  0.66874241  0.60663407  1
  Fe  Fe5  1  0.04124947  0.60663407  0.33125759  1
  Fe  Fe6  1  0.97914113  0.39336593  0.66874241  1
  Fe  Fe7  1  0.62749294  0.33125759  0.39336593  1
  Fe  Fe8  1  0.92775566  0.04994842  0.60998537  1
  Fe  Fe9  1  0.46225897  0.60998537  0.95005158  1
  Fe  Fe10  1  0.02229592  0.39001463  0.04994842  1
  Fe  Fe11  1  0.58768945  0.95005158  0.39001463  1
  Fe  Fe12  1  0.15585832  0.97273784  0.18477401  1
  Fe  Fe13  1  0.65936767  0.18477401  0.02726216  1
  Fe  Fe14  1  0.87140384  0.81522599  0.97273784  1
  Fe  Fe15  1  0.31337016  0.02726216  0.81522599  1
