# generated using pymatgen
data_Li2Ti2V5O12
_symmetry_space_group_name_H-M   'P 1'
_cell_length_a   5.13714611
_cell_length_b   9.12723376
_cell_length_c   9.92019976
_cell_angle_alpha   90.00000013
_cell_angle_beta   101.26029716
_cell_angle_gamma   89.99999961
_symmetry_Int_Tables_number   1
_chemical_formula_structural   Li2Ti2V5O12
_chemical_formula_sum   'Li4 Ti4 V10 O24'
_cell_volume   456.18385980
_cell_formula_units_Z   2
loop_
 _symmetry_equiv_pos_site_id
 _symmetry_equiv_pos_as_xyz
  1  'x, y, z'
loop_
 _atom_site_type_symbol
 _atom_site_label
 _atom_site_symmetry_multiplicity
 _atom_site_fract_x
 _atom_site_fract_y
 _atom_site_fract_z
 _atom_site_occupancy
  Li  Li0  1  0.49381806  0.41822841  0.74927355  1
  Li  Li1  1  0.73887914  0.40966047  0.51402553  1
  Li  Li2  1  0.00618194  0.91822841  0.75072645  1
  Li  Li3  1  0.76112086  0.90966047  0.98597447  1
  Ti  Ti4  1  0.03063046  0.24591401  0.76170954  1
  Ti  Ti5  1  0.47766978  0.24841863  0.24406040  1
  Ti  Ti6  1  0.02233022  0.74841863  0.25593960  1
  Ti  Ti7  1  0.46936954  0.74591401  0.73829046  1
  V  V8  1  0.98913780  0.07783320  0.25902635  1
  V  V9  1  0.50337255  0.07145580  0.73680771  1
  V  V10  1  0.25255350  0.25314442  0.50813980  1
  V  V11  1  0.74052554  0.26078474  0.99150894  1
  V  V12  1  -0.00321170  0.42703712  0.25643179  1
  V  V13  1  0.99662745  0.57145580  0.76319229  1
  V  V14  1  0.51086220  0.57783320  0.24097365  1
  V  V15  1  0.24744650  0.75314442  0.99186020  1
  V  V16  1  0.75947446  0.76078474  0.50849106  1
  V  V17  1  0.50321170  0.92703712  0.24356821  1
  O  O18  1  0.13564181  0.10274928  0.63644032  1
  O  O19  1  0.36368844  0.10016749  0.36004462  1
  O  O20  1  0.37700019  0.23783825  0.86140130  1
  O  O21  1  0.84947780  0.10329226  0.86691270  1
  O  O22  1  0.63681376  0.10350197  0.13062386  1
  O  O23  1  0.11576340  0.24888741  0.14311226  1
  O  O24  1  0.10189289  0.39876916  0.63892321  1
  O  O25  1  0.60491237  0.25098585  0.62799297  1
  O  O26  1  0.87941914  0.25437174  0.36963561  1
  O  O27  1  0.39007166  0.40268587  0.36585617  1
  O  O28  1  0.62257878  0.40261825  0.13335544  1
  O  O29  1  0.87313564  0.39953667  0.86481838  1
  O  O30  1  0.36435819  0.60274928  0.86355968  1
  O  O31  1  0.13631156  0.60016749  0.13995538  1
  O  O32  1  0.12299981  0.73783825  0.63859870  1
  O  O33  1  0.65052220  0.60329226  0.63308730  1
  O  O34  1  0.38423660  0.74888741  0.35688774  1
  O  O35  1  0.86318624  0.60350197  0.36937614  1
  O  O36  1  0.89508763  0.75098585  0.87200703  1
  O  O37  1  0.10992834  0.90268587  0.13414383  1
  O  O38  1  0.39810711  0.89876916  0.86107679  1
  O  O39  1  0.62058086  0.75437174  0.13036439  1
  O  O40  1  0.62686436  0.89953667  0.63518162  1
  O  O41  1  0.87742122  0.90261825  0.36664456  1
