# generated using pymatgen
data_TbSiRu
_symmetry_space_group_name_H-M   'P 1'
_cell_length_a   4.36628714
_cell_length_b   7.03832641
_cell_length_c   7.09106469
_cell_angle_alpha   90.00000000
_cell_angle_beta   90.00000000
_cell_angle_gamma   90.00000000
_symmetry_Int_Tables_number   1
_chemical_formula_structural   TbSiRu
_chemical_formula_sum   'Tb4 Si4 Ru4'
_cell_volume   217.91801987
_cell_formula_units_Z   4
loop_
 _symmetry_equiv_pos_site_id
 _symmetry_equiv_pos_as_xyz
  1  'x, y, z'
loop_
 _atom_site_type_symbol
 _atom_site_label
 _atom_site_symmetry_multiplicity
 _atom_site_fract_x
 _atom_site_fract_y
 _atom_site_fract_z
 _atom_site_occupancy
  Si  Si0  1  0.25000000  0.30498180  0.89368637  1
  Si  Si1  1  0.75000000  0.69501820  0.10631363  1
  Si  Si2  1  0.25000000  0.80498180  0.60631363  1
  Si  Si3  1  0.75000000  0.19501820  0.39368637  1
  Ru  Ru4  1  0.75000000  0.84833379  0.43205320  1
  Ru  Ru5  1  0.25000000  0.15166621  0.56794680  1
  Ru  Ru6  1  0.75000000  0.34833379  0.06794680  1
  Ru  Ru7  1  0.25000000  0.65166621  0.93205320  1
  Tb  Tb8  1  0.25000000  0.98460487  0.18586440  1
  Tb  Tb9  1  0.75000000  0.01539513  0.81413560  1
  Tb  Tb10  1  0.25000000  0.48460487  0.31413560  1
  Tb  Tb11  1  0.75000000  0.51539513  0.68586440  1
