# generated using pymatgen
data_SmCuPb
_symmetry_space_group_name_H-M   'P 1'
_cell_length_a   4.66858091
_cell_length_b   4.66858091
_cell_length_c   7.53536355
_cell_angle_alpha   90.00000000
_cell_angle_beta   90.00000000
_cell_angle_gamma   119.99999993
_symmetry_Int_Tables_number   1
_chemical_formula_structural   SmCuPb
_chemical_formula_sum   'Sm2 Cu2 Pb2'
_cell_volume   142.23439235
_cell_formula_units_Z   2
loop_
 _symmetry_equiv_pos_site_id
 _symmetry_equiv_pos_as_xyz
  1  'x, y, z'
loop_
 _atom_site_type_symbol
 _atom_site_label
 _atom_site_symmetry_multiplicity
 _atom_site_fract_x
 _atom_site_fract_y
 _atom_site_fract_z
 _atom_site_occupancy
  Cu  Cu0  1  0.66666667  0.33333333  0.31357118  1
  Cu  Cu1  1  0.33333333  0.66666667  0.81357118  1
  Sm  Sm2  1  0.00000000  0.00000000  0.99337702  1
  Sm  Sm3  1  0.00000000  0.00000000  0.49337702  1
  Pb  Pb4  1  0.33333333  0.66666667  0.22405180  1
  Pb  Pb5  1  0.66666667  0.33333333  0.72405180  1
