# generated using pymatgen
data_Gd2InPd2
_symmetry_space_group_name_H-M   'P 1'
_cell_length_a   3.80259221
_cell_length_b   7.77246714
_cell_length_c   7.77246714
_cell_angle_alpha   90.00000000
_cell_angle_beta   90.00000000
_cell_angle_gamma   90.00000000
_symmetry_Int_Tables_number   1
_chemical_formula_structural   Gd2InPd2
_chemical_formula_sum   'Gd4 In2 Pd4'
_cell_volume   229.71933132
_cell_formula_units_Z   2
loop_
 _symmetry_equiv_pos_site_id
 _symmetry_equiv_pos_as_xyz
  1  'x, y, z'
loop_
 _atom_site_type_symbol
 _atom_site_label
 _atom_site_symmetry_multiplicity
 _atom_site_fract_x
 _atom_site_fract_y
 _atom_site_fract_z
 _atom_site_occupancy
  Pd  Pd0  1  0.00000000  0.12815985  0.37184015  1
  Pd  Pd1  1  0.00000000  0.37184015  0.87184015  1
  Pd  Pd2  1  0.00000000  0.62815985  0.12815985  1
  Pd  Pd3  1  0.00000000  0.87184015  0.62815985  1
  In  In4  1  0.00000000  0.00000000  0.00000000  1
  In  In5  1  0.00000000  0.50000000  0.50000000  1
  Gd  Gd6  1  0.50000000  0.82591553  0.32591553  1
  Gd  Gd7  1  0.50000000  0.67408447  0.82591553  1
  Gd  Gd8  1  0.50000000  0.32591553  0.17408447  1
  Gd  Gd9  1  0.50000000  0.17408447  0.67408447  1
