# generated using pymatgen
data_LiFeSiO4
_symmetry_space_group_name_H-M   'P 1'
_cell_length_a   5.21636850
_cell_length_b   7.91448207
_cell_length_c   18.91125735
_cell_angle_alpha   90.00000000
_cell_angle_beta   90.00000000
_cell_angle_gamma   90.00000000
_symmetry_Int_Tables_number   1
_chemical_formula_structural   LiFeSiO4
_chemical_formula_sum   'Li8 Fe8 Si8 O32'
_cell_volume   780.74851688
_cell_formula_units_Z   8
loop_
 _symmetry_equiv_pos_site_id
 _symmetry_equiv_pos_as_xyz
  1  'x, y, z'
loop_
 _atom_site_type_symbol
 _atom_site_label
 _atom_site_symmetry_multiplicity
 _atom_site_fract_x
 _atom_site_fract_y
 _atom_site_fract_z
 _atom_site_occupancy
  Li  Li0  1  0.45119904  0.45003778  0.54413309  1
  Li  Li1  1  0.45119904  0.95003778  0.95586691  1
  Li  Li2  1  0.29759278  0.91414529  0.76991811  1
  Li  Li3  1  0.29759278  0.41414529  0.73008189  1
  Li  Li4  1  0.95119904  0.04996222  0.04413309  1
  Li  Li5  1  0.95119904  0.54996222  0.45586691  1
  Li  Li6  1  0.79759278  0.08585471  0.23008189  1
  Li  Li7  1  0.79759278  0.58585471  0.26991811  1
  Fe  Fe8  1  0.29338746  0.52291808  0.07018922  1
  Fe  Fe9  1  0.29338746  0.02291808  0.42981078  1
  Fe  Fe10  1  0.24664453  0.34475932  0.33352379  1
  Fe  Fe11  1  0.24664453  0.84475932  0.16647621  1
  Fe  Fe12  1  0.79338746  0.97708192  0.57018922  1
  Fe  Fe13  1  0.79338746  0.47708192  0.92981078  1
  Fe  Fe14  1  0.74664453  0.15524068  0.83352379  1
  Fe  Fe15  1  0.74664453  0.65524068  0.66647621  1
  Si  Si16  1  0.23899656  0.18141608  0.17847697  1
  Si  Si17  1  0.23899656  0.68141608  0.32152303  1
  Si  Si18  1  0.23042186  0.27355357  0.93354454  1
  Si  Si19  1  0.23042186  0.77355357  0.56645546  1
  Si  Si20  1  0.73899656  0.81858392  0.82152303  1
  Si  Si21  1  0.73899656  0.31858292  0.67847697  1
  Si  Si22  1  0.73042186  0.22644643  0.43354454  1
  Si  Si23  1  0.73042186  0.72644643  0.06645546  1
  O  O24  1  0.96589765  0.45584409  0.69719911  1
  O  O25  1  0.96589765  0.95584409  0.80280089  1
  O  O26  1  0.03193738  0.69589837  0.09358636  1
  O  O27  1  0.03193738  0.19589837  0.40641364  1
  O  O28  1  0.13342343  0.94185437  0.51852858  1
  O  O29  1  0.13342343  0.44185437  0.98147142  1
  O  O30  1  0.02281800  0.30245013  0.86699449  1
  O  O31  1  0.02281800  0.80245013  0.63300551  1
  O  O32  1  0.02826333  0.04659468  0.14403853  1
  O  O33  1  0.02826333  0.54659468  0.35596147  1
  O  O34  1  0.09337383  0.75401016  0.24981772  1
  O  O35  1  0.09337383  0.25401016  0.25018228  1
  O  O36  1  0.31818032  0.33588293  0.12692352  1
  O  O37  1  0.31818032  0.83588293  0.37307648  1
  O  O38  1  0.18995084  0.60201628  0.52508997  1
  O  O39  1  0.18995084  0.10201628  0.97491003  1
  O  O40  1  0.46589765  0.04415591  0.19719911  1
  O  O41  1  0.46589765  0.54415591  0.30280089  1
  O  O42  1  0.53193738  0.30410163  0.90641364  1
  O  O43  1  0.53193738  0.80410163  0.59358636  1
  O  O44  1  0.63342343  0.05814563  0.48147142  1
  O  O45  1  0.63342343  0.55814563  0.01852858  1
  O  O46  1  0.52281800  0.19754987  0.36699449  1
  O  O47  1  0.52281800  0.69754987  0.13300551  1
  O  O48  1  0.52826333  0.95340532  0.85596147  1
  O  O49  1  0.52826333  0.45340532  0.64403853  1
  O  O50  1  0.59337383  0.74598984  0.74981772  1
  O  O51  1  0.59337383  0.24598984  0.75018228  1
  O  O52  1  0.81818032  0.66411707  0.87307648  1
  O  O53  1  0.81818032  0.16411707  0.62692352  1
  O  O54  1  0.68995084  0.39798372  0.47491003  1
  O  O55  1  0.68995084  0.89798372  0.02508997  1
