# generated using pymatgen
data_Ca2In
_symmetry_space_group_name_H-M   'P 1'
_cell_length_a   5.38430416
_cell_length_b   7.25991176
_cell_length_c   10.00689664
_cell_angle_alpha   90.00000000
_cell_angle_beta   90.00000000
_cell_angle_gamma   90.00000000
_symmetry_Int_Tables_number   1
_chemical_formula_structural   Ca2In
_chemical_formula_sum   'Ca8 In4'
_cell_volume   391.16531762
_cell_formula_units_Z   4
loop_
 _symmetry_equiv_pos_site_id
 _symmetry_equiv_pos_as_xyz
  1  'x, y, z'
loop_
 _atom_site_type_symbol
 _atom_site_label
 _atom_site_symmetry_multiplicity
 _atom_site_fract_x
 _atom_site_fract_y
 _atom_site_fract_z
 _atom_site_occupancy
  Ca  Ca0  1  0.75000000  0.96557122  0.29816486  1
  Ca  Ca1  1  0.25000000  0.03442878  0.70183514  1
  Ca  Ca2  1  0.75000000  0.46557122  0.20183514  1
  Ca  Ca3  1  0.25000000  0.53442878  0.79816486  1
  Ca  Ca4  1  0.75000000  0.82640902  0.93513358  1
  Ca  Ca5  1  0.25000000  0.17359098  0.06486642  1
  Ca  Ca6  1  0.75000000  0.32640902  0.56486642  1
  Ca  Ca7  1  0.25000000  0.67359098  0.43513358  1
  In  In8  1  0.75000000  0.77583974  0.61290633  1
  In  In9  1  0.25000000  0.22416026  0.38709367  1
  In  In10  1  0.75000000  0.27583974  0.88709367  1
  In  In11  1  0.25000000  0.72416026  0.11290633  1
