# generated using pymatgen
data_ErNiGe
_symmetry_space_group_name_H-M   'P 1'
_cell_length_a   4.21096800
_cell_length_b   6.83712846
_cell_length_c   7.26337622
_cell_angle_alpha   90.00000000
_cell_angle_beta   90.00000000
_cell_angle_gamma   90.00000000
_symmetry_Int_Tables_number   1
_chemical_formula_structural   ErNiGe
_chemical_formula_sum   'Er4 Ni4 Ge4'
_cell_volume   209.11935019
_cell_formula_units_Z   4
loop_
 _symmetry_equiv_pos_site_id
 _symmetry_equiv_pos_as_xyz
  1  'x, y, z'
loop_
 _atom_site_type_symbol
 _atom_site_label
 _atom_site_symmetry_multiplicity
 _atom_site_fract_x
 _atom_site_fract_y
 _atom_site_fract_z
 _atom_site_occupancy
  Ni  Ni0  1  0.75000000  0.30673495  0.58284630  1
  Ni  Ni1  1  0.25000000  0.19326505  0.08284630  1
  Ni  Ni2  1  0.75000000  0.80673495  0.91715370  1
  Ni  Ni3  1  0.25000000  0.69326505  0.41715370  1
  Ge  Ge4  1  0.25000000  0.30331398  0.41181983  1
  Ge  Ge5  1  0.75000000  0.19668602  0.91181983  1
  Ge  Ge6  1  0.25000000  0.80331398  0.08818017  1
  Ge  Ge7  1  0.75000000  0.69668602  0.58818017  1
  Er  Er8  1  0.25000000  0.49248979  0.79383110  1
  Er  Er9  1  0.75000000  0.50751021  0.20616890  1
  Er  Er10  1  0.25000000  0.99248979  0.70616890  1
  Er  Er11  1  0.75000000  0.00751021  0.29383110  1
