# generated using pymatgen
data_Hf3P2
_symmetry_space_group_name_H-M   'P 1'
_cell_length_a   3.58213047
_cell_length_b   9.87512793
_cell_length_c   10.20383903
_cell_angle_alpha   90.00000000
_cell_angle_beta   90.00000000
_cell_angle_gamma   90.00000000
_symmetry_Int_Tables_number   1
_chemical_formula_structural   Hf3P2
_chemical_formula_sum   'Hf12 P8'
_cell_volume   360.95056770
_cell_formula_units_Z   4
loop_
 _symmetry_equiv_pos_site_id
 _symmetry_equiv_pos_as_xyz
  1  'x, y, z'
loop_
 _atom_site_type_symbol
 _atom_site_label
 _atom_site_symmetry_multiplicity
 _atom_site_fract_x
 _atom_site_fract_y
 _atom_site_fract_z
 _atom_site_occupancy
  P  P0  1  0.25000000  0.67911081  0.97260369  1
  P  P1  1  0.75000000  0.32088919  0.02739631  1
  P  P2  1  0.75000000  0.17911081  0.52739631  1
  P  P3  1  0.25000000  0.82088919  0.47260369  1
  P  P4  1  0.25000000  0.00025372  0.80677261  1
  P  P5  1  0.75000000  0.99974628  0.19322739  1
  P  P6  1  0.75000000  0.50025372  0.69322739  1
  P  P7  1  0.25000000  0.49974628  0.30677261  1
  Hf  Hf8  1  0.25000000  0.79679964  0.21612833  1
  Hf  Hf9  1  0.75000000  0.20320036  0.78387167  1
  Hf  Hf10  1  0.75000000  0.29679964  0.28387167  1
  Hf  Hf11  1  0.25000000  0.70320036  0.71612833  1
  Hf  Hf12  1  0.25000000  0.43520343  0.87528631  1
  Hf  Hf13  1  0.75000000  0.56479657  0.12471369  1
  Hf  Hf14  1  0.75000000  0.93520343  0.62471369  1
  Hf  Hf15  1  0.25000000  0.06479657  0.37528631  1
  Hf  Hf16  1  0.25000000  0.37382816  0.54596990  1
  Hf  Hf17  1  0.75000000  0.62617184  0.45403010  1
  Hf  Hf18  1  0.75000000  0.87382816  0.95403010  1
  Hf  Hf19  1  0.25000000  0.12617184  0.04596990  1
