# generated using pymatgen
data_NdFeSi
_symmetry_space_group_name_H-M   'P 1'
_cell_length_a   4.06424417
_cell_length_b   4.06424417
_cell_length_c   6.99725460
_cell_angle_alpha   90.00000000
_cell_angle_beta   90.00000000
_cell_angle_gamma   90.00000000
_symmetry_Int_Tables_number   1
_chemical_formula_structural   NdFeSi
_chemical_formula_sum   'Nd2 Fe2 Si2'
_cell_volume   115.58121597
_cell_formula_units_Z   2
loop_
 _symmetry_equiv_pos_site_id
 _symmetry_equiv_pos_as_xyz
  1  'x, y, z'
loop_
 _atom_site_type_symbol
 _atom_site_label
 _atom_site_symmetry_multiplicity
 _atom_site_fract_x
 _atom_site_fract_y
 _atom_site_fract_z
 _atom_site_occupancy
  Si  Si0  1  0.75000000  0.75000000  0.83853251  1
  Si  Si1  1  0.25000000  0.25000000  0.16146749  1
  Fe  Fe2  1  0.75000000  0.25000000  0.00000000  1
  Fe  Fe3  1  0.25000000  0.75000000  0.00000000  1
  Nd  Nd4  1  0.25000000  0.25000000  0.68634463  1
  Nd  Nd5  1  0.75000000  0.75000000  0.31365537  1
