# generated using pymatgen
data_U2SnRu2
_symmetry_space_group_name_H-M   'P 1'
_cell_length_a   3.50884594
_cell_length_b   7.57013273
_cell_length_c   7.57013273
_cell_angle_alpha   90.00000000
_cell_angle_beta   90.00000000
_cell_angle_gamma   90.00000000
_symmetry_Int_Tables_number   1
_chemical_formula_structural   U2SnRu2
_chemical_formula_sum   'U4 Sn2 Ru4'
_cell_volume   201.08111691
_cell_formula_units_Z   2
loop_
 _symmetry_equiv_pos_site_id
 _symmetry_equiv_pos_as_xyz
  1  'x, y, z'
loop_
 _atom_site_type_symbol
 _atom_site_label
 _atom_site_symmetry_multiplicity
 _atom_site_fract_x
 _atom_site_fract_y
 _atom_site_fract_z
 _atom_site_occupancy
  Ru  Ru0  1  0.00000000  0.13767884  0.36232116  1
  Ru  Ru1  1  0.00000000  0.36232116  0.86232116  1
  Ru  Ru2  1  0.00000000  0.63767884  0.13767884  1
  Ru  Ru3  1  0.00000000  0.86232116  0.63767884  1
  Sn  Sn4  1  0.00000000  0.00000000  0.00000000  1
  Sn  Sn5  1  0.00000000  0.50000000  0.50000000  1
  U  U6  1  0.50000000  0.83463841  0.33463841  1
  U  U7  1  0.50000000  0.66536159  0.83463841  1
  U  U8  1  0.50000000  0.33463841  0.16536159  1
  U  U9  1  0.50000000  0.16536159  0.66536159  1
