# generated using pymatgen
data_LiMn5P3O13
_symmetry_space_group_name_H-M   'P 1'
_cell_length_a   9.31188906
_cell_length_b   9.31142879
_cell_length_c   6.54391817
_cell_angle_alpha   90.00047291
_cell_angle_beta   89.99988434
_cell_angle_gamma   120.00049385
_symmetry_Int_Tables_number   1
_chemical_formula_structural   LiMn5P3O13
_chemical_formula_sum   'Li2 Mn10 P6 O26'
_cell_volume   491.38336466
_cell_formula_units_Z   2
loop_
 _symmetry_equiv_pos_site_id
 _symmetry_equiv_pos_as_xyz
  1  'x, y, z'
loop_
 _atom_site_type_symbol
 _atom_site_label
 _atom_site_symmetry_multiplicity
 _atom_site_fract_x
 _atom_site_fract_y
 _atom_site_fract_z
 _atom_site_occupancy
  Li  Li0  1  0.99992242  0.00005480  0.52596999  1
  Li  Li1  1  0.00005170  0.99998880  0.02597330  1
  Mn  Mn2  1  0.25302995  0.01486401  0.27173106  1
  Mn  Mn3  1  0.98512910  0.23810833  0.27170329  1
  Mn  Mn4  1  0.33328477  0.66664952  0.01589853  1
  Mn  Mn5  1  0.33331807  0.66665196  0.50599597  1
  Mn  Mn6  1  0.23814714  0.25298685  0.77169207  1
  Mn  Mn7  1  0.76183784  0.74700714  0.27169833  1
  Mn  Mn8  1  0.66669429  0.33335198  0.00599577  1
  Mn  Mn9  1  0.66669066  0.33334857  0.51589228  1
  Mn  Mn10  1  0.01487847  0.76192376  0.77170451  1
  Mn  Mn11  1  0.74695704  0.98512384  0.77170999  1
  P  P12  1  0.02629902  0.39828348  0.76804238  1
  P  P13  1  0.37201109  0.97369846  0.76802030  1
  P  P14  1  0.39829784  0.37196067  0.26800609  1
  P  P15  1  0.60169107  0.62799915  0.76802117  1
  P  P16  1  0.62802353  0.02633065  0.26799813  1
  P  P17  1  0.97366334  0.60171711  0.26805299  1
  O  O18  1  0.25099776  0.92546459  0.58290243  1
  O  O19  1  0.26273949  0.91947362  0.96382336  1
  O  O20  1  0.16062611  0.65876443  0.26622459  1
  O  O21  1  0.13249084  0.59289758  0.75719488  1
  O  O22  1  0.08051204  0.34321136  0.96384477  1
  O  O23  1  0.07453589  0.32549236  0.58292452  1
  O  O24  1  0.99996735  0.00002842  0.27617083  1
  O  O25  1  0.00004020  0.99995936  0.77617042  1
  O  O26  1  0.46042552  0.86750302  0.75714928  1
  O  O27  1  0.34125154  0.50189124  0.26618995  1
  O  O28  1  0.49809368  0.83936247  0.26617768  1
  O  O29  1  0.40708215  0.53957663  0.75720507  1
  O  O30  1  0.32550984  0.25096370  0.08288265  1
  O  O31  1  0.34321096  0.26268516  0.46378780  1
  O  O32  1  0.65679313  0.73730845  0.96380147  1
  O  O33  1  0.67445222  0.74901432  0.58288853  1
  O  O34  1  0.59288570  0.46041347  0.25717151  1
  O  O35  1  0.50191678  0.16061949  0.76619509  1
  O  O36  1  0.65869622  0.49808912  0.76618846  1
  O  O37  1  0.53960109  0.13249886  0.25715663  1
  O  O38  1  0.92545611  0.67450678  0.08292805  1
  O  O39  1  0.91947459  0.65679075  0.46384790  1
  O  O40  1  0.86751318  0.40711551  0.25720318  1
  O  O41  1  0.83938908  0.34126290  0.76620591  1
  O  O42  1  0.74901409  0.07454008  0.08287250  1
  O  O43  1  0.73729808  0.08051723  0.46378741  1
