# generated using pymatgen
data_LiFeP2O7
_symmetry_space_group_name_H-M   'P 1'
_cell_length_a   6.70797707
_cell_length_b   6.27873574
_cell_length_c   7.08641480
_cell_angle_alpha   114.91146737
_cell_angle_beta   104.55732572
_cell_angle_gamma   81.03527151
_symmetry_Int_Tables_number   1
_chemical_formula_structural   LiFeP2O7
_chemical_formula_sum   'Li2 Fe2 P4 O14'
_cell_volume   261.57908702
_cell_formula_units_Z   2
loop_
 _symmetry_equiv_pos_site_id
 _symmetry_equiv_pos_as_xyz
  1  'x, y, z'
loop_
 _atom_site_type_symbol
 _atom_site_label
 _atom_site_symmetry_multiplicity
 _atom_site_fract_x
 _atom_site_fract_y
 _atom_site_fract_z
 _atom_site_occupancy
  Li  Li0  1  0.32712880  0.93772006  0.81399072  1
  Li  Li1  1  0.67287120  0.06227994  0.18600928  1
  Fe  Fe2  1  0.18789811  0.74216639  0.09889525  1
  Fe  Fe3  1  0.81210189  0.25783361  0.90110475  1
  P  P4  1  0.17712762  0.22573140  0.24150473  1
  P  P5  1  0.36636064  0.36492662  0.69943718  1
  P  P6  1  0.63363936  0.63507338  0.30056282  1
  P  P7  1  0.82287238  0.77426860  0.75849527  1
  O  O8  1  0.97296882  0.94585243  0.76755557  1
  O  O9  1  0.06890493  0.38534739  0.12442037  1
  O  O10  1  0.25676737  0.40229353  0.48007178  1
  O  O11  1  0.25882049  0.18704815  0.71922340  1
  O  O12  1  0.35396771  0.06327681  0.14528744  1
  O  O13  1  0.34547099  0.62040838  0.86725179  1
  O  O14  1  0.40328661  0.69901344  0.31680001  1
  O  O15  1  0.59671339  0.30098656  0.68319999  1
  O  O16  1  0.65452901  0.37959162  0.13274821  1
  O  O17  1  0.64603229  0.93672319  0.85471256  1
  O  O18  1  0.74117951  0.81295185  0.28077660  1
  O  O19  1  0.74323263  0.59770647  0.51992822  1
  O  O20  1  0.93109507  0.61465261  0.87557963  1
  O  O21  1  0.02703118  0.05414757  0.23244443  1
