# generated using pymatgen
data_CeFeGe3
_symmetry_space_group_name_H-M   'P 1'
_cell_length_a   4.29560552
_cell_length_b   4.29560552
_cell_length_c   5.82641127
_cell_angle_alpha   111.63128566
_cell_angle_beta   111.63128574
_cell_angle_gamma   89.99999995
_symmetry_Int_Tables_number   1
_chemical_formula_structural   CeFeGe3
_chemical_formula_sum   'Ce1 Fe1 Ge3'
_cell_volume   91.74478868
_cell_formula_units_Z   1
loop_
 _symmetry_equiv_pos_site_id
 _symmetry_equiv_pos_as_xyz
  1  'x, y, z'
loop_
 _atom_site_type_symbol
 _atom_site_label
 _atom_site_symmetry_multiplicity
 _atom_site_fract_x
 _atom_site_fract_y
 _atom_site_fract_z
 _atom_site_occupancy
  Fe  Fe0  1  0.99885372  0.99885372  0.99770743  1
  Ge  Ge1  1  0.59026618  0.09026618  0.18053236  1
  Ge  Ge2  1  0.77125600  0.77125600  0.54251199  1
  Ge  Ge3  1  0.09026618  0.59026618  0.18053236  1
  Ce  Ce4  1  0.32775793  0.32775793  0.65551585  1
