# generated using pymatgen
data_EuPSe3
_symmetry_space_group_name_H-M   'P 1'
_cell_length_a   7.03601455
_cell_length_b   7.82108619
_cell_length_c   9.76927427
_cell_angle_alpha   90.00000000
_cell_angle_beta   91.92096951
_cell_angle_gamma   90.00000000
_symmetry_Int_Tables_number   1
_chemical_formula_structural   EuPSe3
_chemical_formula_sum   'Eu4 P4 Se12'
_cell_volume   537.29397095
_cell_formula_units_Z   4
loop_
 _symmetry_equiv_pos_site_id
 _symmetry_equiv_pos_as_xyz
  1  'x, y, z'
loop_
 _atom_site_type_symbol
 _atom_site_label
 _atom_site_symmetry_multiplicity
 _atom_site_fract_x
 _atom_site_fract_y
 _atom_site_fract_z
 _atom_site_occupancy
  P  P0  1  0.06170358  0.89421660  0.43576368  1
  P  P1  1  0.43829642  0.39421660  0.06423632  1
  P  P2  1  0.93829642  0.10578340  0.56423632  1
  P  P3  1  0.56170358  0.60578340  0.93576368  1
  Se  Se4  1  0.61046411  0.49255819  0.73227593  1
  Se  Se5  1  0.88953589  0.99255819  0.76772407  1
  Se  Se6  1  0.38953589  0.50744181  0.26772407  1
  Se  Se7  1  0.11046411  0.00744181  0.23227593  1
  Se  Se8  1  0.82284275  0.69941776  0.04572144  1
  Se  Se9  1  0.67715725  0.19941776  0.45427856  1
  Se  Se10  1  0.17715725  0.30058224  0.95427856  1
  Se  Se11  1  0.32284275  0.80058224  0.54572144  1
  Se  Se12  1  0.33956345  0.80630666  0.94224296  1
  Se  Se13  1  0.16043655  0.30630666  0.55775704  1
  Se  Se14  1  0.66043655  0.19369334  0.05775704  1
  Se  Se15  1  0.83956345  0.69369334  0.44224296  1
  Eu  Eu16  1  0.53697207  0.88700915  0.25092443  1
  Eu  Eu17  1  0.96302793  0.38700915  0.24907557  1
  Eu  Eu18  1  0.46302793  0.11299085  0.74907557  1
  Eu  Eu19  1  0.03697207  0.61299085  0.75092443  1
