# generated using pymatgen
data_Tl4Te3Pb
_symmetry_space_group_name_H-M   'P 1'
_cell_length_a   9.27162301
_cell_length_b   9.27162301
_cell_length_c   9.27162301
_cell_angle_alpha   86.49333457
_cell_angle_beta   122.04480883
_cell_angle_gamma   122.04480883
_symmetry_Int_Tables_number   1
_chemical_formula_structural   Tl4Te3Pb
_chemical_formula_sum   'Tl8 Te6 Pb2'
_cell_volume   545.04594730
_cell_formula_units_Z   2
loop_
 _symmetry_equiv_pos_site_id
 _symmetry_equiv_pos_as_xyz
  1  'x, y, z'
loop_
 _atom_site_type_symbol
 _atom_site_label
 _atom_site_symmetry_multiplicity
 _atom_site_fract_x
 _atom_site_fract_y
 _atom_site_fract_z
 _atom_site_occupancy
  Tl  Tl0  1  0.20609762  0.01114428  0.51114428  1
  Tl  Tl1  1  0.79390238  0.30504666  0.80504666  1
  Tl  Tl2  1  0.50000000  0.80504666  0.01114428  1
  Tl  Tl3  1  0.50000000  0.51114428  0.30504666  1
  Tl  Tl4  1  0.79390238  0.98885572  0.48885572  1
  Tl  Tl5  1  0.20609762  0.69495334  0.19495334  1
  Tl  Tl6  1  0.50000000  0.19495334  0.98885572  1
  Tl  Tl7  1  0.50000000  0.48885572  0.69495334  1
  Te  Te8  1  0.82630679  0.66315339  0.16315339  1
  Te  Te9  1  0.17369321  0.33684661  0.83684661  1
  Te  Te10  1  0.50000000  0.83684661  0.66315339  1
  Te  Te11  1  0.50000000  0.16315339  0.33684661  1
  Te  Te12  1  -0.00000000  0.75000000  0.75000000  1
  Te  Te13  1  -0.00000000  0.25000000  0.25000000  1
  Pb  Pb14  1  -0.00000000  0.50000000  0.50000000  1
  Pb  Pb15  1  -0.00000000  -0.00000000  -0.00000000  1
