# generated using pymatgen
data_ErSiIr
_symmetry_space_group_name_H-M   'P 1'
_cell_length_a   4.20722173
_cell_length_b   6.78371524
_cell_length_c   7.49600276
_cell_angle_alpha   90.00000000
_cell_angle_beta   90.00000000
_cell_angle_gamma   90.00000000
_symmetry_Int_Tables_number   1
_chemical_formula_structural   ErSiIr
_chemical_formula_sum   'Er4 Si4 Ir4'
_cell_volume   213.94037265
_cell_formula_units_Z   4
loop_
 _symmetry_equiv_pos_site_id
 _symmetry_equiv_pos_as_xyz
  1  'x, y, z'
loop_
 _atom_site_type_symbol
 _atom_site_label
 _atom_site_symmetry_multiplicity
 _atom_site_fract_x
 _atom_site_fract_y
 _atom_site_fract_z
 _atom_site_occupancy
  Er  Er0  1  0.75000000  0.49302154  0.68874098  1
  Er  Er1  1  0.75000000  0.99302154  0.81125902  1
  Er  Er2  1  0.25000000  0.50697846  0.31125902  1
  Er  Er3  1  0.25000000  0.00697846  0.18874098  1
  Si  Si4  1  0.75000000  0.70458303  0.11044870  1
  Si  Si5  1  0.75000000  0.20458303  0.38955130  1
  Si  Si6  1  0.25000000  0.29541697  0.88955130  1
  Si  Si7  1  0.25000000  0.79541697  0.61044870  1
  Ir  Ir8  1  0.75000000  0.34191653  0.06601185  1
  Ir  Ir9  1  0.75000000  0.84191653  0.43398815  1
  Ir  Ir10  1  0.25000000  0.65808347  0.93398815  1
  Ir  Ir11  1  0.25000000  0.15808347  0.56601185  1
