# generated using pymatgen
data_Sb2PbO6
_symmetry_space_group_name_H-M   'P 1'
_cell_length_a   5.38631802
_cell_length_b   5.38631802
_cell_length_c   5.45821134
_cell_angle_alpha   90.00000000
_cell_angle_beta   90.00000000
_cell_angle_gamma   119.99999999
_symmetry_Int_Tables_number   1
_chemical_formula_structural   Sb2PbO6
_chemical_formula_sum   'Sb2 Pb1 O6'
_cell_volume   137.14025805
_cell_formula_units_Z   1
loop_
 _symmetry_equiv_pos_site_id
 _symmetry_equiv_pos_as_xyz
  1  'x, y, z'
loop_
 _atom_site_type_symbol
 _atom_site_label
 _atom_site_symmetry_multiplicity
 _atom_site_fract_x
 _atom_site_fract_y
 _atom_site_fract_z
 _atom_site_occupancy
  O  O0  1  0.37917342  0.37917342  0.70576292  1
  O  O1  1  0.62082658  0.00000000  0.70576292  1
  O  O2  1  0.00000000  0.62082658  0.70576292  1
  O  O3  1  0.37917342  0.00000000  0.29423708  1
  O  O4  1  0.00000000  0.37917342  0.29423708  1
  O  O5  1  0.62082658  0.62082658  0.29423708  1
  Sb  Sb6  1  0.66666667  0.33333333  0.50000000  1
  Sb  Sb7  1  0.33333333  0.66666667  0.50000000  1
  Pb  Pb8  1  0.00000000  0.00000000  0.00000000  1
