# generated using pymatgen
data_CeDyS3
_symmetry_space_group_name_H-M   'P 1'
_cell_length_a   3.98318330
_cell_length_b   7.38631210
_cell_length_c   15.29016281
_cell_angle_alpha   90.00000000
_cell_angle_beta   90.00000000
_cell_angle_gamma   90.00000000
_symmetry_Int_Tables_number   1
_chemical_formula_structural   CeDyS3
_chemical_formula_sum   'Ce4 Dy4 S12'
_cell_volume   449.85241527
_cell_formula_units_Z   4
loop_
 _symmetry_equiv_pos_site_id
 _symmetry_equiv_pos_as_xyz
  1  'x, y, z'
loop_
 _atom_site_type_symbol
 _atom_site_label
 _atom_site_symmetry_multiplicity
 _atom_site_fract_x
 _atom_site_fract_y
 _atom_site_fract_z
 _atom_site_occupancy
  S  S0  1  0.25000000  0.87433583  0.93614553  1
  S  S1  1  0.75000000  0.12566417  0.06385447  1
  S  S2  1  0.25000000  0.37433583  0.56385447  1
  S  S3  1  0.75000000  0.62566417  0.43614553  1
  S  S4  1  0.25000000  0.64873516  0.71760158  1
  S  S5  1  0.75000000  0.35126484  0.28239842  1
  S  S6  1  0.25000000  0.14873516  0.78239842  1
  S  S7  1  0.75000000  0.85126484  0.21760158  1
  S  S8  1  0.75000000  0.98892112  0.60553816  1
  S  S9  1  0.25000000  0.01107888  0.39446184  1
  S  S10  1  0.75000000  0.48892112  0.89446184  1
  S  S11  1  0.25000000  0.51107888  0.10553816  1
  Ce  Ce12  1  0.75000000  0.85959749  0.79699008  1
  Ce  Ce13  1  0.25000000  0.14040251  0.20300992  1
  Ce  Ce14  1  0.75000000  0.35959749  0.70300992  1
  Ce  Ce15  1  0.25000000  0.64040251  0.29699008  1
  Dy  Dy16  1  0.75000000  0.23344235  0.45632046  1
  Dy  Dy17  1  0.25000000  0.76655765  0.54367954  1
  Dy  Dy18  1  0.75000000  0.73344235  0.04367954  1
  Dy  Dy19  1  0.25000000  0.26655765  0.95632046  1
