# generated using pymatgen
data_Pu(CuSi)2
_symmetry_space_group_name_H-M   'P 1'
_cell_length_a   3.98463474
_cell_length_b   3.98463474
_cell_length_c   5.74015355
_cell_angle_alpha   110.30908331
_cell_angle_beta   110.30908336
_cell_angle_gamma   89.99999999
_symmetry_Int_Tables_number   1
_chemical_formula_structural   Pu(CuSi)2
_chemical_formula_sum   'Pu1 Si2 Cu2'
_cell_volume   79.40356594
_cell_formula_units_Z   1
loop_
 _symmetry_equiv_pos_site_id
 _symmetry_equiv_pos_as_xyz
  1  'x, y, z'
loop_
 _atom_site_type_symbol
 _atom_site_label
 _atom_site_symmetry_multiplicity
 _atom_site_fract_x
 _atom_site_fract_y
 _atom_site_fract_z
 _atom_site_occupancy
  Si  Si0  1  0.61760868  0.61760868  0.23521735  1
  Si  Si1  1  0.38239132  0.38239132  0.76478265  1
  Cu  Cu2  1  0.25000000  0.75000000  0.50000000  1
  Cu  Cu3  1  0.75000000  0.25000000  0.50000000  1
  Pu  Pu4  1  0.00000000  0.00000000  0.00000000  1
