# generated using pymatgen
data_Dy4In(NiGe2)2
_symmetry_space_group_name_H-M   'P 1'
_cell_length_a   4.24202195
_cell_length_b   7.05920983
_cell_length_c   8.04437386
_cell_angle_alpha   108.03402180
_cell_angle_beta   105.28757653
_cell_angle_gamma   90.00000003
_symmetry_Int_Tables_number   1
_chemical_formula_structural   Dy4In(NiGe2)2
_chemical_formula_sum   'Dy4 In1 Ni2 Ge4'
_cell_volume   220.07513963
_cell_formula_units_Z   1
loop_
 _symmetry_equiv_pos_site_id
 _symmetry_equiv_pos_as_xyz
  1  'x, y, z'
loop_
 _atom_site_type_symbol
 _atom_site_label
 _atom_site_symmetry_multiplicity
 _atom_site_fract_x
 _atom_site_fract_y
 _atom_site_fract_z
 _atom_site_occupancy
  Ni  Ni0  1  0.21663557  0.64392240  0.43327114  1
  Ni  Ni1  1  0.78336443  0.35607760  0.56672886  1
  Ge  Ge2  1  0.06541037  0.66226735  0.13082073  1
  Ge  Ge3  1  0.93458963  0.33773265  0.86917927  1
  Ge  Ge4  1  0.20416078  0.27264251  0.40832155  1
  Ge  Ge5  1  0.79583922  0.72735749  0.59167845  1
  In  In6  1  0.00000000  0.00000000  0.00000000  1
  Dy  Dy7  1  0.34431064  0.06198652  0.68862128  1
  Dy  Dy8  1  0.65568936  0.93801348  0.31137872  1
  Dy  Dy9  1  0.40817210  0.60901240  0.81634421  1
  Dy  Dy10  1  0.59182790  0.39098760  0.18365579  1
