# generated using pymatgen
data_LiCoSiO4
_symmetry_space_group_name_H-M   'P 1'
_cell_length_a   4.68660700
_cell_length_b   6.10365459
_cell_length_c   10.17497559
_cell_angle_alpha   90.00000000
_cell_angle_beta   90.00000000
_cell_angle_gamma   90.00000000
_symmetry_Int_Tables_number   1
_chemical_formula_structural   LiCoSiO4
_chemical_formula_sum   'Li4 Co4 Si4 O16'
_cell_volume   291.05955532
_cell_formula_units_Z   4
loop_
 _symmetry_equiv_pos_site_id
 _symmetry_equiv_pos_as_xyz
  1  'x, y, z'
loop_
 _atom_site_type_symbol
 _atom_site_label
 _atom_site_symmetry_multiplicity
 _atom_site_fract_x
 _atom_site_fract_y
 _atom_site_fract_z
 _atom_site_occupancy
  Li  Li0  1  0.03759954  0.00634246  0.21911465  1
  Li  Li1  1  0.46240046  0.00634246  0.71911365  1
  Li  Li2  1  0.53759954  0.50634246  0.28088635  1
  Li  Li3  1  0.96240046  0.50634246  0.78088635  1
  Co  Co4  1  0.00002986  0.25651179  0.50003905  1
  Co  Co5  1  0.49997014  0.25651179  0.00003905  1
  Co  Co6  1  0.50002986  0.75651179  0.99996095  1
  Co  Co7  1  0.99997014  0.75651179  0.49996095  1
  Si  Si8  1  0.09076140  0.50656566  0.08725648  1
  Si  Si9  1  0.40923860  0.50656566  0.58725648  1
  Si  Si10  1  0.59076140  0.00656566  0.41274352  1
  Si  Si11  1  0.90923860  0.00656566  0.91274352  1
  O  O12  1  0.26620202  0.50649468  0.93969151  1
  O  O13  1  0.23974815  0.28067682  0.14459215  1
  O  O14  1  0.23971316  0.73255335  0.14445514  1
  O  O15  1  0.24753435  0.00655622  0.41111477  1
  O  O16  1  0.25246565  0.00655622  0.91111477  1
  O  O17  1  0.26028684  0.73255335  0.64445514  1
  O  O18  1  0.26025185  0.28067682  0.64459215  1
  O  O19  1  0.23379798  0.50649468  0.43969151  1
  O  O20  1  0.76620202  0.00649468  0.56030849  1
  O  O21  1  0.73974815  0.78067682  0.35540785  1
  O  O22  1  0.73971316  0.23255335  0.35554486  1
  O  O23  1  0.74753435  0.50655622  0.08888523  1
  O  O24  1  0.75246565  0.50655622  0.58888523  1
  O  O25  1  0.76028684  0.23255335  0.85554486  1
  O  O26  1  0.76025185  0.78067682  0.85540785  1
  O  O27  1  0.73379798  0.00649468  0.06030849  1
