# generated using pymatgen
data_Ta3PbS6
_symmetry_space_group_name_H-M   'P 1'
_cell_length_a   5.82138985
_cell_length_b   5.82138986
_cell_length_c   15.06039907
_cell_angle_alpha   90.00000000
_cell_angle_beta   90.00000000
_cell_angle_gamma   120.00000002
_symmetry_Int_Tables_number   1
_chemical_formula_structural   Ta3PbS6
_chemical_formula_sum   'Ta6 Pb2 S12'
_cell_volume   441.99817960
_cell_formula_units_Z   2
loop_
 _symmetry_equiv_pos_site_id
 _symmetry_equiv_pos_as_xyz
  1  'x, y, z'
loop_
 _atom_site_type_symbol
 _atom_site_label
 _atom_site_symmetry_multiplicity
 _atom_site_fract_x
 _atom_site_fract_y
 _atom_site_fract_z
 _atom_site_occupancy
  S  S0  1  0.33630183  0.00004931  0.39671398  1
  S  S1  1  0.99995069  0.33625252  0.39671398  1
  S  S2  1  0.66374748  0.66369817  0.39671398  1
  S  S3  1  0.33625252  0.33630183  0.89671398  1
  S  S4  1  0.66369817  0.66374748  0.60328602  1
  S  S5  1  0.66369817  0.99995069  0.89671398  1
  S  S6  1  0.00004931  0.66374748  0.89671398  1
  S  S7  1  0.99995069  0.66369817  0.10328602  1
  S  S8  1  0.33630183  0.33625252  0.10328602  1
  S  S9  1  0.00004931  0.33630183  0.60328602  1
  S  S10  1  0.33625252  0.99995069  0.60328602  1
  S  S11  1  0.66374748  0.00004931  0.10328602  1
  Ta  Ta12  1  0.00000000  0.00000000  0.50000000  1
  Ta  Ta13  1  0.00000000  0.00000000  0.00000000  1
  Ta  Ta14  1  0.33333333  0.66666667  0.49998297  1
  Ta  Ta15  1  0.66666667  0.33333333  0.99998297  1
  Ta  Ta16  1  0.66666667  0.33333333  0.50001703  1
  Ta  Ta17  1  0.33333333  0.66666667  0.00001703  1
  Pb  Pb18  1  0.00000000  0.00000000  0.75000000  1
  Pb  Pb19  1  0.00000000  0.00000000  0.25000000  1
