# generated using pymatgen
data_Co2C2O7
_symmetry_space_group_name_H-M   'P 1'
_cell_length_a   8.04653591
_cell_length_b   7.88042863
_cell_length_c   11.40728180
_cell_angle_alpha   90.00000000
_cell_angle_beta   101.32785906
_cell_angle_gamma   90.00000000
_symmetry_Int_Tables_number   1
_chemical_formula_structural   Co2C2O7
_chemical_formula_sum   'Co8 C8 O28'
_cell_volume   709.24632883
_cell_formula_units_Z   4
loop_
 _symmetry_equiv_pos_site_id
 _symmetry_equiv_pos_as_xyz
  1  'x, y, z'
loop_
 _atom_site_type_symbol
 _atom_site_label
 _atom_site_symmetry_multiplicity
 _atom_site_fract_x
 _atom_site_fract_y
 _atom_site_fract_z
 _atom_site_occupancy
  Co  Co0  1  0.20378538  0.56805809  0.62584677  1
  Co  Co1  1  0.35836881  0.37269589  0.88290522  1
  Co  Co2  1  0.20378538  0.93194191  0.12584677  1
  Co  Co3  1  0.35836881  0.12730411  0.38290522  1
  Co  Co4  1  0.64163119  0.87269589  0.61709478  1
  Co  Co5  1  0.79621462  0.06805809  0.87415323  1
  Co  Co6  1  0.64163119  0.62730411  0.11709478  1
  Co  Co7  1  0.79621462  0.43194191  0.37415323  1
  C  C8  1  0.16128698  0.08622759  0.89559549  1
  C  C9  1  0.16128698  0.41377241  0.39559549  1
  C  C10  1  0.27435868  0.87863971  0.54626580  1
  C  C11  1  0.27435868  0.62136029  0.04626580  1
  C  C12  1  0.72564132  0.37863971  0.95373420  1
  C  C13  1  0.72564132  0.12136029  0.45373420  1
  C  C14  1  0.83871302  0.58622759  0.60440451  1
  C  C15  1  0.83871302  0.91377241  0.10440451  1
  O  O16  1  0.02245097  0.00096311  0.86660910  1
  O  O17  1  0.20940560  0.19008764  0.82110992  1
  O  O18  1  0.02245097  0.49903689  0.36660910  1
  O  O19  1  0.14704880  0.79867324  0.57299940  1
  O  O20  1  0.33827992  0.53181967  0.76842070  1
  O  O21  1  0.25674459  0.03157500  0.50685735  1
  O  O22  1  0.26001133  0.43617808  0.49957667  1
  O  O23  1  0.20940560  0.30991236  0.32110992  1
  O  O24  1  0.14704880  0.70132676  0.07299940  1
  O  O25  1  0.41918005  0.79637374  0.55946494  1
  O  O26  1  0.58081995  0.29637374  0.94053506  1
  O  O27  1  0.73998867  0.93617808  0.00042333  1
  O  O28  1  0.33827992  0.96818033  0.26842070  1
  O  O29  1  0.25674459  0.46842500  0.00685735  1
  O  O30  1  0.74325541  0.53157500  0.99314265  1
  O  O31  1  0.66172008  0.03181967  0.73157930  1
  O  O32  1  0.26001133  0.06382192  -0.00042333  1
  O  O33  1  0.41918005  0.70362626  0.05946494  1
  O  O34  1  0.58081995  0.20362626  0.44053506  1
  O  O35  1  0.85295120  0.29867324  0.92700060  1
  O  O36  1  0.79059440  0.69008764  0.67889008  1
  O  O37  1  0.73998867  0.56382192  0.50042333  1
  O  O38  1  0.74325541  0.96842500  0.49314265  1
  O  O39  1  0.66172008  0.46818033  0.23157930  1
  O  O40  1  0.85295120  0.20132676  0.42700060  1
  O  O41  1  0.97754903  0.50096311  0.63339090  1
  O  O42  1  0.79059440  0.80991236  0.17889008  1
  O  O43  1  0.97754903  0.99903689  0.13339090  1
