# generated using pymatgen
data_CeSnPt
_symmetry_space_group_name_H-M   'P 1'
_cell_length_a   4.65012713
_cell_length_b   7.40549237
_cell_length_c   8.08439535
_cell_angle_alpha   90.00000000
_cell_angle_beta   90.00000000
_cell_angle_gamma   90.00000000
_symmetry_Int_Tables_number   1
_chemical_formula_structural   CeSnPt
_chemical_formula_sum   'Ce4 Sn4 Pt4'
_cell_volume   278.39812671
_cell_formula_units_Z   4
loop_
 _symmetry_equiv_pos_site_id
 _symmetry_equiv_pos_as_xyz
  1  'x, y, z'
loop_
 _atom_site_type_symbol
 _atom_site_label
 _atom_site_symmetry_multiplicity
 _atom_site_fract_x
 _atom_site_fract_y
 _atom_site_fract_z
 _atom_site_occupancy
  Sn  Sn0  1  0.25000000  0.67693867  0.41524028  1
  Sn  Sn1  1  0.25000000  0.17693867  0.08475972  1
  Sn  Sn2  1  0.75000000  0.32306133  0.58475972  1
  Sn  Sn3  1  0.75000000  0.82306133  0.91524028  1
  Ce  Ce4  1  0.75000000  0.48785887  0.19780804  1
  Ce  Ce5  1  0.25000000  0.01214113  0.69780804  1
  Ce  Ce6  1  0.75000000  0.98785887  0.30219196  1
  Ce  Ce7  1  0.25000000  0.51214113  0.80219196  1
  Pt  Pt8  1  0.25000000  0.78137640  0.08827101  1
  Pt  Pt9  1  0.25000000  0.28137640  0.41172899  1
  Pt  Pt10  1  0.75000000  0.71862360  0.58827101  1
  Pt  Pt11  1  0.75000000  0.21862360  0.91172899  1
