# generated using pymatgen
data_Nd(FeGe)2
_symmetry_space_group_name_H-M   'P 1'
_cell_length_a   4.03286389
_cell_length_b   4.03286389
_cell_length_c   6.09589173
_cell_angle_alpha   109.31645260
_cell_angle_beta   109.31645261
_cell_angle_gamma   89.99999998
_symmetry_Int_Tables_number   1
_chemical_formula_structural   Nd(FeGe)2
_chemical_formula_sum   'Nd1 Fe2 Ge2'
_cell_volume   87.62639445
_cell_formula_units_Z   1
loop_
 _symmetry_equiv_pos_site_id
 _symmetry_equiv_pos_as_xyz
  1  'x, y, z'
loop_
 _atom_site_type_symbol
 _atom_site_label
 _atom_site_symmetry_multiplicity
 _atom_site_fract_x
 _atom_site_fract_y
 _atom_site_fract_z
 _atom_site_occupancy
  Fe  Fe0  1  0.25000000  0.75000000  0.50000000  1
  Fe  Fe1  1  0.75000000  0.25000000  0.50000000  1
  Ge  Ge2  1  0.62159161  0.62159161  0.24318322  1
  Ge  Ge3  1  0.37840839  0.37840839  0.75681678  1
  Nd  Nd4  1  0.00000000  0.00000000  0.00000000  1
