# generated using pymatgen
data_Rb(InAu2)2
_symmetry_space_group_name_H-M   'P 1'
_cell_length_a   7.67224764
_cell_length_b   7.67224764
_cell_length_c   7.67224764
_cell_angle_alpha   107.59293047
_cell_angle_beta   107.59293056
_cell_angle_gamma   113.29687718
_symmetry_Int_Tables_number   1
_chemical_formula_structural   Rb(InAu2)2
_chemical_formula_sum   'Rb2 In4 Au8'
_cell_volume   346.48229774
_cell_formula_units_Z   2
loop_
 _symmetry_equiv_pos_site_id
 _symmetry_equiv_pos_as_xyz
  1  'x, y, z'
loop_
 _atom_site_type_symbol
 _atom_site_label
 _atom_site_symmetry_multiplicity
 _atom_site_fract_x
 _atom_site_fract_y
 _atom_site_fract_z
 _atom_site_occupancy
  Rb  Rb0  1  0.75000000  0.75000000  0.00000000  1
  Rb  Rb1  1  0.25000000  0.25000000  0.00000000  1
  In  In2  1  0.35859720  0.85859720  0.21719441  1
  In  In3  1  0.85859720  0.64140280  0.50000000  1
  In  In4  1  0.14140280  0.35859720  0.50000000  1
  In  In5  1  0.64140280  0.14140280  0.78280559  1
  Au  Au6  1  0.51284457  0.31736308  0.50000000  1
  Au  Au7  1  0.31736308  0.81736308  0.80451851  1
  Au  Au8  1  0.81736308  0.01284457  0.50000000  1
  Au  Au9  1  0.01284457  0.51284457  0.19548149  1
  Au  Au10  1  0.68263692  0.18263692  0.19548149  1
  Au  Au11  1  0.18263692  0.98715543  0.50000000  1
  Au  Au12  1  0.48715543  0.68263692  0.50000000  1
  Au  Au13  1  0.98715543  0.48715543  0.80451851  1
