# generated using pymatgen
data_Eu(POs)2
_symmetry_space_group_name_H-M   'P 1'
_cell_length_a   4.07880424
_cell_length_b   4.07880424
_cell_length_c   6.12363831
_cell_angle_alpha   109.45325270
_cell_angle_beta   109.45325271
_cell_angle_gamma   90.00000000
_symmetry_Int_Tables_number   1
_chemical_formula_structural   Eu(POs)2
_chemical_formula_sum   'Eu1 P2 Os2'
_cell_volume   89.86964204
_cell_formula_units_Z   1
loop_
 _symmetry_equiv_pos_site_id
 _symmetry_equiv_pos_as_xyz
  1  'x, y, z'
loop_
 _atom_site_type_symbol
 _atom_site_label
 _atom_site_symmetry_multiplicity
 _atom_site_fract_x
 _atom_site_fract_y
 _atom_site_fract_z
 _atom_site_occupancy
  P  P0  1  0.64292727  0.64292727  0.28585455  1
  P  P1  1  0.35707273  0.35707273  0.71414545  1
  Eu  Eu2  1  0.00000000  0.00000000  0.00000000  1
  Os  Os3  1  0.75000000  0.25000000  0.50000000  1
  Os  Os4  1  0.25000000  0.75000000  0.50000000  1
