# generated using pymatgen
data_Sr2InPd2
_symmetry_space_group_name_H-M   'P 1'
_cell_length_a   6.09744051
_cell_length_b   6.11129589
_cell_length_c   8.41900286
_cell_angle_alpha   101.87550673
_cell_angle_beta   90.00000000
_cell_angle_gamma   119.92503081
_symmetry_Int_Tables_number   1
_chemical_formula_structural   Sr2InPd2
_chemical_formula_sum   'Sr4 In2 Pd4'
_cell_volume   264.11838882
_cell_formula_units_Z   2
loop_
 _symmetry_equiv_pos_site_id
 _symmetry_equiv_pos_as_xyz
  1  'x, y, z'
loop_
 _atom_site_type_symbol
 _atom_site_label
 _atom_site_symmetry_multiplicity
 _atom_site_fract_x
 _atom_site_fract_y
 _atom_site_fract_z
 _atom_site_occupancy
  Sr  Sr0  1  0.21182934  0.70284318  0.35212921  1
  Sr  Sr1  1  0.50898616  0.29715682  0.14787079  1
  Sr  Sr2  1  0.78817066  0.29715682  0.64787079  1
  Sr  Sr3  1  0.49101384  0.70284318  0.85212921  1
  Pd  Pd4  1  0.99760490  0.26747146  0.00302930  1
  Pd  Pd5  1  0.73013344  0.73252854  0.49697070  1
  Pd  Pd6  1  0.00239510  0.73252854  0.99697070  1
  Pd  Pd7  1  0.26986656  0.26747146  0.50302930  1
  In  In8  1  0.86492013  0.00000000  0.25000000  1
  In  In9  1  0.13507987  0.00000000  0.75000000  1
