# generated using pymatgen
data_LiCoSiO4
_symmetry_space_group_name_H-M   'P 1'
_cell_length_a   8.68694699
_cell_length_b   8.68396033
_cell_length_c   8.08451703
_cell_angle_alpha   89.99769492
_cell_angle_beta   90.07283292
_cell_angle_gamma   120.00550554
_symmetry_Int_Tables_number   1
_chemical_formula_structural   LiCoSiO4
_chemical_formula_sum   'Li6 Co6 Si6 O24'
_cell_volume   528.13526110
_cell_formula_units_Z   6
loop_
 _symmetry_equiv_pos_site_id
 _symmetry_equiv_pos_as_xyz
  1  'x, y, z'
loop_
 _atom_site_type_symbol
 _atom_site_label
 _atom_site_symmetry_multiplicity
 _atom_site_fract_x
 _atom_site_fract_y
 _atom_site_fract_z
 _atom_site_occupancy
  Li  Li0  1  0.33348319  0.66676840  0.26080527  1
  Li  Li1  1  0.33332224  0.66679152  0.74589246  1
  Li  Li2  1  0.00025603  0.00011998  0.09360613  1
  Li  Li3  1  0.00021162  0.00008411  0.59346999  1
  Li  Li4  1  0.66700624  0.33326319  0.76086810  1
  Li  Li5  1  0.66639217  0.33311882  0.24610309  1
  Co  Co6  1  0.03597277  0.69181281  0.40360581  1
  Co  Co7  1  0.30778928  0.34407367  0.40370771  1
  Co  Co8  1  0.65551284  0.96370552  0.40397673  1
  Co  Co9  1  0.34441892  0.03645775  0.90383060  1
  Co  Co10  1  0.69187081  0.65566402  0.90373158  1
  Co  Co11  1  0.96395919  0.30793304  0.90388476  1
  Si  Si12  1  0.04752355  0.68942873  0.01779112  1
  Si  Si13  1  0.31071345  0.35822967  0.01775659  1
  Si  Si14  1  0.64192890  0.95260829  0.01800320  1
  Si  Si15  1  0.35807481  0.04739548  0.51792527  1
  Si  Si16  1  0.68923750  0.64177162  0.51791495  1
  Si  Si17  1  0.95246341  0.31063683  0.51783493  1
  O  O18  1  0.14077562  0.91287504  0.50848605  1
  O  O19  1  0.14962265  0.73575074  0.19798702  1
  O  O20  1  0.08108159  0.52542383  0.49620760  1
  O  O21  1  0.20607007  0.78648907  0.87747399  1
  O  O22  1  0.21373674  0.41982317  0.87707759  1
  O  O23  1  0.44411284  0.91869236  0.49612534  1
  O  O24  1  0.08686228  0.22770824  0.50809124  1
  O  O25  1  0.26451834  0.41416796  0.19766265  1
  O  O26  1  0.58594207  0.85037673  0.19788948  1
  O  O27  1  0.47458975  0.55577222  0.49576274  1
  O  O28  1  0.22776374  0.14084348  0.00822738  1
  O  O29  1  0.58027544  0.79404889  0.87735922  1
  O  O30  1  0.41940315  0.20584898  0.37721608  1
  O  O31  1  0.77212174  0.85916523  0.50867584  1
  O  O32  1  0.52538429  0.44427939  0.99592785  1
  O  O33  1  0.41430989  0.14977865  0.69789664  1
  O  O34  1  0.73543313  0.58565947  0.69790141  1
  O  O35  1  0.91303293  0.77226099  0.00837668  1
  O  O36  1  0.55596824  0.08139093  0.99612610  1
  O  O37  1  0.78614617  0.58021172  0.37734451  1
  O  O38  1  0.79367562  0.21362712  0.37724411  1
  O  O39  1  0.91902203  0.47466008  0.99571221  1
  O  O40  1  0.85057110  0.26424199  0.69776066  1
  O  O41  1  0.85924366  0.08703928  0.00875832  1
