# generated using pymatgen
data_CeSnIr
_symmetry_space_group_name_H-M   'P 1'
_cell_length_a   7.49754724
_cell_length_b   7.49754723
_cell_length_c   4.08443645
_cell_angle_alpha   90.00000000
_cell_angle_beta   90.00000000
_cell_angle_gamma   120.00000002
_symmetry_Int_Tables_number   1
_chemical_formula_structural   CeSnIr
_chemical_formula_sum   'Ce3 Sn3 Ir3'
_cell_volume   198.83882869
_cell_formula_units_Z   3
loop_
 _symmetry_equiv_pos_site_id
 _symmetry_equiv_pos_as_xyz
  1  'x, y, z'
loop_
 _atom_site_type_symbol
 _atom_site_label
 _atom_site_symmetry_multiplicity
 _atom_site_fract_x
 _atom_site_fract_y
 _atom_site_fract_z
 _atom_site_occupancy
  Sn  Sn0  1  0.00000000  0.25329435  0.50000000  1
  Sn  Sn1  1  0.74670565  0.74670565  0.50000000  1
  Sn  Sn2  1  0.25329435  0.00000000  0.50000000  1
  Ce  Ce3  1  0.41301753  0.41301753  0.00000000  1
  Ce  Ce4  1  0.58698247  0.00000000  0.00000000  1
  Ce  Ce5  1  0.00000000  0.58698247  0.00000000  1
  Ir  Ir6  1  0.00000000  0.00000000  0.00000000  1
  Ir  Ir7  1  0.66666667  0.33333333  0.50000000  1
  Ir  Ir8  1  0.33333333  0.66666667  0.50000000  1
