# generated using pymatgen
data_Dy3(CuSn)4
_symmetry_space_group_name_H-M   'P 1'
_cell_length_a   4.46612201
_cell_length_b   6.95732350
_cell_length_c   8.44231051
_cell_angle_alpha   114.32666551
_cell_angle_beta   105.33773653
_cell_angle_gamma   90.00000002
_symmetry_Int_Tables_number   1
_chemical_formula_structural   Dy3(CuSn)4
_chemical_formula_sum   'Dy3 Cu4 Sn4'
_cell_volume   228.73815315
_cell_formula_units_Z   1
loop_
 _symmetry_equiv_pos_site_id
 _symmetry_equiv_pos_as_xyz
  1  'x, y, z'
loop_
 _atom_site_type_symbol
 _atom_site_label
 _atom_site_symmetry_multiplicity
 _atom_site_fract_x
 _atom_site_fract_y
 _atom_site_fract_z
 _atom_site_occupancy
  Cu  Cu0  1  0.32939961  0.01761344  0.65879923  1
  Cu  Cu1  1  0.67060039  0.98238656  0.34120077  1
  Cu  Cu2  1  0.32937443  0.64119702  0.65874885  1
  Cu  Cu3  1  0.67062557  0.35880298  0.34125115  1
  Sn  Sn4  1  0.21614903  0.21618327  0.43229806  1
  Sn  Sn5  1  0.49999121  0.70294269  0.99998241  1
  Sn  Sn6  1  0.50000879  0.29705731  0.00001759  1
  Sn  Sn7  1  0.78385097  0.78381673  0.56770194  1
  Dy  Dy8  1  0.00000000  0.00000000  0.00000000  1
  Dy  Dy9  1  0.86874781  0.36874725  0.73749563  1
  Dy  Dy10  1  0.13125219  0.63125275  0.26250437  1
