# generated using pymatgen
data_Dy2InPd2
_symmetry_space_group_name_H-M   'P 1'
_cell_length_a   3.72758715
_cell_length_b   7.73218935
_cell_length_c   7.73218935
_cell_angle_alpha   90.00000000
_cell_angle_beta   90.00000000
_cell_angle_gamma   90.00000000
_symmetry_Int_Tables_number   1
_chemical_formula_structural   Dy2InPd2
_chemical_formula_sum   'Dy4 In2 Pd4'
_cell_volume   222.86032903
_cell_formula_units_Z   2
loop_
 _symmetry_equiv_pos_site_id
 _symmetry_equiv_pos_as_xyz
  1  'x, y, z'
loop_
 _atom_site_type_symbol
 _atom_site_label
 _atom_site_symmetry_multiplicity
 _atom_site_fract_x
 _atom_site_fract_y
 _atom_site_fract_z
 _atom_site_occupancy
  Pd  Pd0  1  0.00000000  0.12821983  0.37178017  1
  Pd  Pd1  1  0.00000000  0.37178017  0.87178017  1
  Pd  Pd2  1  0.00000000  0.62821983  0.12821983  1
  Pd  Pd3  1  0.00000000  0.87178017  0.62821983  1
  In  In4  1  0.00000000  0.00000000  0.00000000  1
  In  In5  1  0.00000000  0.50000000  0.50000000  1
  Dy  Dy6  1  0.50000000  0.82668379  0.32668379  1
  Dy  Dy7  1  0.50000000  0.67331621  0.82668379  1
  Dy  Dy8  1  0.50000000  0.32668379  0.17331621  1
  Dy  Dy9  1  0.50000000  0.17331621  0.67331621  1
