# generated using pymatgen
data_LiMnF3
_symmetry_space_group_name_H-M   'P 1'
_cell_length_a   7.28863634
_cell_length_b   7.28863634
_cell_length_c   6.17613110
_cell_angle_alpha   63.36382658
_cell_angle_beta   116.63617342
_cell_angle_gamma   115.01665323
_symmetry_Int_Tables_number   1
_chemical_formula_structural   LiMnF3
_chemical_formula_sum   'Li4 Mn4 F12'
_cell_volume   251.84409387
_cell_formula_units_Z   4
loop_
 _symmetry_equiv_pos_site_id
 _symmetry_equiv_pos_as_xyz
  1  'x, y, z'
loop_
 _atom_site_type_symbol
 _atom_site_label
 _atom_site_symmetry_multiplicity
 _atom_site_fract_x
 _atom_site_fract_y
 _atom_site_fract_z
 _atom_site_occupancy
  Li  Li0  1  0.80502266  0.76152656  0.83568616  1
  Li  Li1  1  0.20067272  0.24125526  0.73717906  1
  Li  Li2  1  0.23847344  0.19497734  0.33568616  1
  Li  Li3  1  0.75874474  0.79932728  0.23717906  1
  Mn  Mn4  1  0.19677912  0.68754601  0.87191283  1
  Mn  Mn5  1  0.31245399  0.80322088  0.37191283  1
  Mn  Mn6  1  0.68024797  0.21110258  0.64660012  1
  Mn  Mn7  1  0.78889742  0.31975203  0.14660012  1
  F  F8  1  0.10946804  0.88433108  0.96984182  1
  F  F9  1  0.11566892  0.89053196  0.46984182  1
  F  F10  1  0.57061065  0.86926023  0.70022218  1
  F  F11  1  0.23385569  0.52523815  0.69422315  1
  F  F12  1  0.13073977  0.42938935  0.20022218  1
  F  F13  1  0.47476185  0.76614431  0.19422315  1
  F  F14  1  0.41542084  0.22699602  0.66678251  1
  F  F15  1  0.82278240  0.53423187  0.75373605  1
  F  F16  1  0.77300398  0.58457916  0.16678251  1
  F  F17  1  0.46576813  0.17721760  0.25373605  1
  F  F18  1  0.90357143  0.18294377  0.54881512  1
  F  F19  1  0.81705623  0.09642857  0.04881512  1
