# generated using pymatgen
data_CeBO3
_symmetry_space_group_name_H-M   'P 1'
_cell_length_a   5.11207195
_cell_length_b   5.82640857
_cell_length_c   8.23081217
_cell_angle_alpha   90.00000000
_cell_angle_beta   90.00000000
_cell_angle_gamma   90.00000000
_symmetry_Int_Tables_number   1
_chemical_formula_structural   CeBO3
_chemical_formula_sum   'Ce4 B4 O12'
_cell_volume   245.15490362
_cell_formula_units_Z   4
loop_
 _symmetry_equiv_pos_site_id
 _symmetry_equiv_pos_as_xyz
  1  'x, y, z'
loop_
 _atom_site_type_symbol
 _atom_site_label
 _atom_site_symmetry_multiplicity
 _atom_site_fract_x
 _atom_site_fract_y
 _atom_site_fract_z
 _atom_site_occupancy
  B  B0  1  0.25000000  0.92061063  0.25947739  1
  B  B1  1  0.75000000  0.07938937  0.74052261  1
  B  B2  1  0.25000000  0.42061063  0.24052261  1
  B  B3  1  0.75000000  0.57938937  0.75947739  1
  O  O4  1  0.75000000  0.59051767  0.92654168  1
  O  O5  1  0.25000000  0.40948233  0.07345832  1
  O  O6  1  0.75000000  0.09051767  0.57345832  1
  O  O7  1  0.25000000  0.90948233  0.42654168  1
  O  O8  1  0.51659120  0.58510645  0.67438046  1
  O  O9  1  0.01659120  0.41489355  0.32561954  1
  O  O10  1  0.98340880  0.08510645  0.82561954  1
  O  O11  1  0.48340880  0.91489355  0.17438046  1
  O  O12  1  0.48340880  0.41489355  0.32561954  1
  O  O13  1  0.98340880  0.58510645  0.67438046  1
  O  O14  1  0.01659120  0.91489355  0.17438046  1
  O  O15  1  0.51659120  0.08510645  0.82561954  1
  Ce  Ce16  1  0.25000000  0.75650417  0.91417394  1
  Ce  Ce17  1  0.75000000  0.24349583  0.08582606  1
  Ce  Ce18  1  0.25000000  0.25650417  0.58582606  1
  Ce  Ce19  1  0.75000000  0.74349583  0.41417394  1
