# generated using pymatgen
data_Dy2InAu2
_symmetry_space_group_name_H-M   'P 1'
_cell_length_a   3.73768674
_cell_length_b   7.97997253
_cell_length_c   7.97997253
_cell_angle_alpha   90.00000000
_cell_angle_beta   90.00000000
_cell_angle_gamma   90.00000000
_symmetry_Int_Tables_number   1
_chemical_formula_structural   Dy2InAu2
_chemical_formula_sum   'Dy4 In2 Au4'
_cell_volume   238.01574800
_cell_formula_units_Z   2
loop_
 _symmetry_equiv_pos_site_id
 _symmetry_equiv_pos_as_xyz
  1  'x, y, z'
loop_
 _atom_site_type_symbol
 _atom_site_label
 _atom_site_symmetry_multiplicity
 _atom_site_fract_x
 _atom_site_fract_y
 _atom_site_fract_z
 _atom_site_occupancy
  In  In0  1  0.00000000  0.50000000  0.50000000  1
  In  In1  1  0.00000000  0.00000000  0.00000000  1
  Dy  Dy2  1  0.50000000  0.83067499  0.33067499  1
  Dy  Dy3  1  0.50000000  0.66932501  0.83067499  1
  Dy  Dy4  1  0.50000000  0.16932501  0.66932501  1
  Dy  Dy5  1  0.50000000  0.33067499  0.16932501  1
  Au  Au6  1  0.00000000  0.62872556  0.12872556  1
  Au  Au7  1  0.00000000  0.87127444  0.62872556  1
  Au  Au8  1  0.00000000  0.12872556  0.37127444  1
  Au  Au9  1  0.00000000  0.37127444  0.87127444  1
