# generated using pymatgen
data_Rb2RhF6
_symmetry_space_group_name_H-M   'P 1'
_cell_length_a   6.01110713
_cell_length_b   6.01110713
_cell_length_c   4.98691140
_cell_angle_alpha   90.00000000
_cell_angle_beta   90.00000000
_cell_angle_gamma   120.00000004
_symmetry_Int_Tables_number   1
_chemical_formula_structural   Rb2RhF6
_chemical_formula_sum   'Rb2 Rh1 F6'
_cell_volume   156.05267594
_cell_formula_units_Z   1
loop_
 _symmetry_equiv_pos_site_id
 _symmetry_equiv_pos_as_xyz
  1  'x, y, z'
loop_
 _atom_site_type_symbol
 _atom_site_label
 _atom_site_symmetry_multiplicity
 _atom_site_fract_x
 _atom_site_fract_y
 _atom_site_fract_z
 _atom_site_occupancy
  F  F0  1  0.84325562  0.15674438  0.78347098  1
  F  F1  1  0.84325562  0.68651125  0.78347098  1
  F  F2  1  0.31348875  0.15674438  0.78347098  1
  F  F3  1  0.15674438  0.84325562  0.21652902  1
  F  F4  1  0.15674438  0.31348875  0.21652902  1
  F  F5  1  0.68651125  0.84325562  0.21652902  1
  Rb  Rb6  1  0.33333333  0.66666667  0.70192052  1
  Rb  Rb7  1  0.66666667  0.33333333  0.29807948  1
  Rh  Rh8  1  0.00000000  0.00000000  0.00000000  1
