# generated using pymatgen
data_Fe4O3F5
_symmetry_space_group_name_H-M   'P 1'
_cell_length_a   4.77035096
_cell_length_b   4.76258503
_cell_length_c   12.55993115
_cell_angle_alpha   89.59111142
_cell_angle_beta   88.74508747
_cell_angle_gamma   91.42141933
_symmetry_Int_Tables_number   1
_chemical_formula_structural   Fe4O3F5
_chemical_formula_sum   'Fe8 O6 F10'
_cell_volume   285.18696839
_cell_formula_units_Z   2
loop_
 _symmetry_equiv_pos_site_id
 _symmetry_equiv_pos_as_xyz
  1  'x, y, z'
loop_
 _atom_site_type_symbol
 _atom_site_label
 _atom_site_symmetry_multiplicity
 _atom_site_fract_x
 _atom_site_fract_y
 _atom_site_fract_z
 _atom_site_occupancy
  Fe  Fe0  1  0.00000000  0.00000000  0.00000000  1
  Fe  Fe1  1  0.96506693  0.98307659  0.24067278  1
  Fe  Fe2  1  0.00000000  0.00000000  0.50000000  1
  Fe  Fe3  1  0.03493307  0.01692341  0.75932722  1
  Fe  Fe4  1  0.53939201  0.48069662  0.13432146  1
  Fe  Fe5  1  0.48863139  0.48162744  0.61135243  1
  Fe  Fe6  1  0.46060799  0.51930338  0.86567854  1
  Fe  Fe7  1  0.51136861  0.51837256  0.38864757  1
  O  O8  1  0.19464064  0.81415714  0.87458402  1
  O  O9  1  0.28727803  0.28753199  0.49521906  1
  O  O10  1  0.30778837  0.31697006  0.74754198  1
  O  O11  1  0.69221163  0.68302894  0.25245802  1
  O  O12  1  0.71272197  0.71246801  0.50478094  1
  O  O13  1  0.80535936  0.18584286  0.12541598  1
  F  F14  1  0.21042131  0.78212255  0.13136888  1
  F  F15  1  0.18723889  0.80901317  0.36975629  1
  F  F16  1  0.19398947  0.81144531  0.62867543  1
  F  F17  1  0.32000357  0.31920160  0.00102775  1
  F  F18  1  0.29325638  0.28321010  0.24738882  1
  F  F19  1  0.67999643  0.68079840  0.99897225  1
  F  F20  1  0.70674362  0.71678990  0.75261118  1
  F  F21  1  0.80601053  0.18855469  0.37132457  1
  F  F22  1  0.81276111  0.19098683  0.63024371  1
  F  F23  1  0.78957869  0.21787745  0.86863112  1
