# generated using pymatgen
data_Fe4O3F5
_symmetry_space_group_name_H-M   'P 1'
_cell_length_a   4.82158757
_cell_length_b   9.66321060
_cell_length_c   6.15176219
_cell_angle_alpha   90.10699475
_cell_angle_beta   90.14558784
_cell_angle_gamma   90.70595809
_symmetry_Int_Tables_number   1
_chemical_formula_structural   Fe4O3F5
_chemical_formula_sum   'Fe8 O6 F10'
_cell_volume   286.59980511
_cell_formula_units_Z   2
loop_
 _symmetry_equiv_pos_site_id
 _symmetry_equiv_pos_as_xyz
  1  'x, y, z'
loop_
 _atom_site_type_symbol
 _atom_site_label
 _atom_site_symmetry_multiplicity
 _atom_site_fract_x
 _atom_site_fract_y
 _atom_site_fract_z
 _atom_site_occupancy
  Fe  Fe0  1  0.99162822  0.99427454  0.99973235  1
  Fe  Fe1  1  0.04064979  0.01669303  0.50011573  1
  Fe  Fe2  1  0.99192288  0.49700537  0.00039235  1
  Fe  Fe3  1  0.01463707  0.50997407  0.50049657  1
  Fe  Fe4  1  0.54025380  0.23739606  0.24868468  1
  Fe  Fe5  1  0.50401900  0.25582563  0.75260820  1
  Fe  Fe6  1  0.47181034  0.73259818  0.24897538  1
  Fe  Fe7  1  0.44048736  0.75106713  0.74989806  1
  O  O8  1  0.17839778  0.91275375  0.75357160  1
  O  O9  1  0.33340957  0.15644129  0.50341444  1
  O  O10  1  0.29323305  0.65804530  0.00067935  1
  O  O11  1  0.30063866  0.66052273  0.49832134  1
  O  O12  1  0.68546067  0.33513912  0.99752625  1
  O  O13  1  0.82851023  0.09005600  0.24759994  1
  F  F14  1  0.21386335  0.39038368  0.25298769  1
  F  F15  1  0.19780268  0.39267677  0.74668382  1
  F  F16  1  0.20656917  0.90315103  0.24746191  1
  F  F17  1  0.30688499  0.14378354  0.99924135  1
  F  F18  1  0.70787465  0.34975510  0.50214193  1
  F  F19  1  0.68696996  0.84987477  0.00208136  1
  F  F20  1  0.68964576  0.85130224  0.49611724  1
  F  F21  1  0.77786079  0.60616842  0.74914565  1
  F  F22  1  0.80600416  0.10138098  0.75066261  1
  F  F23  1  0.79146605  0.60373328  0.25146019  1
