# generated using pymatgen
data_Cs2MnSnTe4
_symmetry_space_group_name_H-M   'P 1'
_cell_length_a   6.80935238
_cell_length_b   8.55221884
_cell_length_c   13.56852272
_cell_angle_alpha   84.26692213
_cell_angle_beta   75.46776781
_cell_angle_gamma   66.54026950
_symmetry_Int_Tables_number   1
_chemical_formula_structural   Cs2MnSnTe4
_chemical_formula_sum   'Cs4 Mn2 Sn2 Te8'
_cell_volume   701.65866742
_cell_formula_units_Z   2
loop_
 _symmetry_equiv_pos_site_id
 _symmetry_equiv_pos_as_xyz
  1  'x, y, z'
loop_
 _atom_site_type_symbol
 _atom_site_label
 _atom_site_symmetry_multiplicity
 _atom_site_fract_x
 _atom_site_fract_y
 _atom_site_fract_z
 _atom_site_occupancy
  Mn  Mn0  1  0.87500000  0.25000000  0.25000000  1
  Mn  Mn1  1  0.12500000  0.75000000  0.75000000  1
  Sn  Sn2  1  0.37500000  0.25000000  0.25000000  1
  Sn  Sn3  1  0.62500000  0.75000000  0.75000000  1
  Te  Te4  1  0.21470841  0.94569632  0.86999880  1
  Te  Te5  1  0.53040352  0.55430368  0.63000120  1
  Te  Te6  1  0.83959527  0.94569632  0.63000120  1
  Te  Te7  1  0.91529279  0.55430368  0.86999880  1
  Te  Te8  1  0.78529159  0.05430368  0.13000120  1
  Te  Te9  1  0.46959648  0.44569632  0.36999880  1
  Te  Te10  1  0.16040473  0.05430368  0.36999880  1
  Te  Te11  1  0.08470721  0.44569632  0.13000120  1
  Cs  Cs12  1  0.80927052  0.75000000  0.38145897  1
  Cs  Cs13  1  0.44072948  0.75000000  0.11854103  1
  Cs  Cs14  1  0.19072948  0.25000000  0.61854103  1
  Cs  Cs15  1  0.55927052  0.25000000  0.88145897  1
