# generated using pymatgen
data_CeSiBO5
_symmetry_space_group_name_H-M   'P 1'
_cell_length_a   6.89707652
_cell_length_b   6.89707652
_cell_length_c   6.74723795
_cell_angle_alpha   90.00000000
_cell_angle_beta   90.00000000
_cell_angle_gamma   120.00000001
_symmetry_Int_Tables_number   1
_chemical_formula_structural   CeSiBO5
_chemical_formula_sum   'Ce3 Si3 B3 O15'
_cell_volume   277.96284396
_cell_formula_units_Z   3
loop_
 _symmetry_equiv_pos_site_id
 _symmetry_equiv_pos_as_xyz
  1  'x, y, z'
loop_
 _atom_site_type_symbol
 _atom_site_label
 _atom_site_symmetry_multiplicity
 _atom_site_fract_x
 _atom_site_fract_y
 _atom_site_fract_z
 _atom_site_occupancy
  B  B0  1  0.89916329  0.88513091  0.47427888  1
  B  B1  1  0.98596761  0.10083671  0.14094555  1
  B  B2  1  0.11486909  0.01403239  0.80761222  1
  O  O3  1  0.14873655  0.54360994  0.50315614  1
  O  O4  1  0.39487339  0.85126345  0.16982280  1
  O  O5  1  0.45639006  0.60512661  0.83648947  1
  O  O6  1  0.05972893  0.05315575  0.60929442  1
  O  O7  1  0.94684425  0.00657317  0.94262776  1
  O  O8  1  0.99342683  0.94027107  0.27596109  1
  O  O9  1  0.34941238  0.19502618  0.85772259  1
  O  O10  1  0.80497382  0.15438620  0.19105592  1
  O  O11  1  0.84561380  0.65058762  0.52438926  1
  O  O12  1  0.19218774  0.33193988  0.14915371  1
  O  O13  1  0.66806012  0.86024786  0.48248704  1
  O  O14  1  0.13975214  0.80781226  0.81582038  1
  O  O15  1  0.61074134  0.47386746  0.16175968  1
  O  O16  1  0.52613254  0.13687388  0.49509302  1
  O  O17  1  0.86312612  0.38925866  0.82842635  1
  Si  Si18  1  0.41595960  0.41775907  0.00114434  1
  Si  Si19  1  0.00179947  0.58404040  0.66781101  1
  Si  Si20  1  0.58224093  0.99820053  0.33447768  1
  Ce  Ce21  1  0.41122903  0.41148808  0.50035690  1
  Ce  Ce22  1  0.00025904  0.58877097  0.16702356  1
  Ce  Ce23  1  0.58851192  0.99974096  0.83369023  1
