# generated using pymatgen
data_In2S3
_symmetry_space_group_name_H-M   'P 1'
_cell_length_a   7.76641264
_cell_length_b   7.76641264
_cell_length_c   17.33046547
_cell_angle_alpha   102.94809142
_cell_angle_beta   102.94809143
_cell_angle_gamma   90.00000002
_symmetry_Int_Tables_number   1
_chemical_formula_structural   In2S3
_chemical_formula_sum   'In16 S24'
_cell_volume   991.45431282
_cell_formula_units_Z   8
loop_
 _symmetry_equiv_pos_site_id
 _symmetry_equiv_pos_as_xyz
  1  'x, y, z'
loop_
 _atom_site_type_symbol
 _atom_site_label
 _atom_site_symmetry_multiplicity
 _atom_site_fract_x
 _atom_site_fract_y
 _atom_site_fract_z
 _atom_site_occupancy
  S  S0  1  0.93550529  0.41300413  0.82600826  1
  S  S1  1  0.08699587  0.10949704  0.67399174  1
  S  S2  1  0.08699587  0.56449471  0.67399174  1
  S  S3  1  0.60949704  0.58699587  0.17399174  1
  S  S4  1  0.06449471  0.58699587  0.17399174  1
  S  S5  1  0.91300413  0.43550529  0.32600826  1
  S  S6  1  0.91300413  0.89050296  0.32600826  1
  S  S7  1  0.39050296  0.41300413  0.82600826  1
  S  S8  1  0.59084155  0.07779608  0.15559217  1
  S  S9  1  0.42220392  0.43524938  0.34440783  1
  S  S10  1  0.42220392  0.90915845  0.34440783  1
  S  S11  1  0.93524938  0.92220392  0.84440783  1
  S  S12  1  0.40915845  0.92220392  0.84440783  1
  S  S13  1  0.57779608  0.09084155  0.65559217  1
  S  S14  1  0.57779608  0.56475062  0.65559217  1
  S  S15  1  0.06475062  0.07779608  0.15559217  1
  S  S16  1  0.25834309  0.25068854  0.50137708  1
  S  S17  1  0.75068854  0.75834309  0.00137708  1
  S  S18  1  0.75068854  0.24303399  0.00137708  1
  S  S19  1  0.25696601  0.74931146  0.49862292  1
  S  S20  1  0.74165691  0.74931146  0.49862292  1
  S  S21  1  0.24931146  0.75696601  0.99862292  1
  S  S22  1  0.24931146  0.24165691  0.99862292  1
  S  S23  1  0.74303399  0.25068854  0.50137708  1
  In  In24  1  0.29522845  0.54522845  0.09045691  1
  In  In25  1  0.04522845  0.79522845  0.59045691  1
  In  In26  1  0.70477155  0.45477155  0.90954309  1
  In  In27  1  0.95477155  0.20477155  0.40954309  1
  In  In28  1  0.81398009  0.33218940  0.66437880  1
  In  In29  1  0.16781060  0.14960129  0.83562120  1
  In  In30  1  0.16781060  0.68601991  0.83562120  1
  In  In31  1  0.64960129  0.66781060  0.33562120  1
  In  In32  1  0.18601991  0.66781060  0.33562120  1
  In  In33  1  0.83218940  0.31398009  0.16437880  1
  In  In34  1  0.83218940  0.85039871  0.16437880  1
  In  In35  1  0.35039871  0.33218940  0.66437880  1
  In  In36  1  0.50000000  0.00000000  0.00000000  1
  In  In37  1  0.50000000  0.00000000  0.50000000  1
  In  In38  1  0.50000000  0.50000000  0.50000000  1
  In  In39  1  0.00000000  0.00000000  0.00000000  1
