# generated using pymatgen
data_Zr4Co4Ge7
_symmetry_space_group_name_H-M   'P 1'
_cell_length_a   5.25076215
_cell_length_b   9.75387750
_cell_length_c   9.75387750
_cell_angle_alpha   85.84536004
_cell_angle_beta   74.38554474
_cell_angle_gamma   74.38554477
_symmetry_Int_Tables_number   1
_chemical_formula_structural   Zr4Co4Ge7
_chemical_formula_sum   'Zr8 Co8 Ge14'
_cell_volume   463.35613407
_cell_formula_units_Z   2
loop_
 _symmetry_equiv_pos_site_id
 _symmetry_equiv_pos_as_xyz
  1  'x, y, z'
loop_
 _atom_site_type_symbol
 _atom_site_label
 _atom_site_symmetry_multiplicity
 _atom_site_fract_x
 _atom_site_fract_y
 _atom_site_fract_z
 _atom_site_occupancy
  Co  Co0  1  0.39830622  0.50000000  0.20338757  1
  Co  Co1  1  0.60169378  0.79661243  0.50000000  1
  Co  Co2  1  0.89830622  0.20338757  0.50000000  1
  Co  Co3  1  0.10169378  0.50000000  0.79661243  1
  Co  Co4  1  0.60169378  0.50000000  0.79661243  1
  Co  Co5  1  0.39830622  0.20338757  0.50000000  1
  Co  Co6  1  0.10169378  0.79661243  0.50000000  1
  Co  Co7  1  0.89830622  0.50000000  0.20338757  1
  Ge  Ge8  1  0.29202036  0.00000000  0.41595927  1
  Ge  Ge9  1  0.70797964  0.58404073  0.00000000  1
  Ge  Ge10  1  0.29202036  0.41595927  0.00000000  1
  Ge  Ge11  1  0.70797964  0.00000000  0.58404073  1
  Ge  Ge12  1  0.29332405  0.70667595  0.70667595  1
  Ge  Ge13  1  0.00000000  0.29332405  0.70667595  1
  Ge  Ge14  1  0.00000000  0.70667595  0.29332405  1
  Ge  Ge15  1  0.70667595  0.29332405  0.29332405  1
  Ge  Ge16  1  0.90606481  0.59393519  0.59393519  1
  Ge  Ge17  1  0.50000000  0.40606481  0.59393519  1
  Ge  Ge18  1  0.50000000  0.59393519  0.40606481  1
  Ge  Ge19  1  0.09393519  0.40606481  0.40606481  1
  Ge  Ge20  1  0.24930223  0.00000000  0.00000000  1
  Ge  Ge21  1  0.75069777  0.00000000  0.00000000  1
  Zr  Zr22  1  0.13872640  0.00000000  0.72254720  1
  Zr  Zr23  1  0.86127360  0.27745280  0.00000000  1
  Zr  Zr24  1  0.13872640  0.72254720  0.00000000  1
  Zr  Zr25  1  0.86127360  0.00000000  0.27745280  1
  Zr  Zr26  1  0.69565062  0.80434938  0.80434938  1
  Zr  Zr27  1  0.50000000  0.19565062  0.80434938  1
  Zr  Zr28  1  0.50000000  0.80434938  0.19565062  1
  Zr  Zr29  1  0.30434938  0.19565062  0.19565062  1
