# generated using pymatgen
data_In3Co
_symmetry_space_group_name_H-M   'P 1'
_cell_length_a   6.89937206
_cell_length_b   6.89937206
_cell_length_c   7.14483314
_cell_angle_alpha   90.00000000
_cell_angle_beta   90.00000000
_cell_angle_gamma   90.00000000
_symmetry_Int_Tables_number   1
_chemical_formula_structural   In3Co
_chemical_formula_sum   'In12 Co4'
_cell_volume   340.10359455
_cell_formula_units_Z   4
loop_
 _symmetry_equiv_pos_site_id
 _symmetry_equiv_pos_as_xyz
  1  'x, y, z'
loop_
 _atom_site_type_symbol
 _atom_site_label
 _atom_site_symmetry_multiplicity
 _atom_site_fract_x
 _atom_site_fract_y
 _atom_site_fract_z
 _atom_site_occupancy
  Co  Co0  1  0.34896698  0.34896698  0.00000000  1
  Co  Co1  1  0.15103302  0.84896698  0.50000000  1
  Co  Co2  1  0.84896698  0.15103302  0.50000000  1
  Co  Co3  1  0.65103302  0.65103302  0.00000000  1
  In  In4  1  0.00000000  0.50000000  0.00000000  1
  In  In5  1  0.00000000  0.50000000  0.50000000  1
  In  In6  1  0.50000000  0.00000000  0.50000000  1
  In  In7  1  0.50000000  0.00000000  0.00000000  1
  In  In8  1  0.15416895  0.15416895  0.25588550  1
  In  In9  1  0.34583105  0.65416895  0.75588550  1
  In  In10  1  0.65416895  0.34583105  0.75588550  1
  In  In11  1  0.65416895  0.34583105  0.24411450  1
  In  In12  1  0.34583105  0.65416895  0.24411450  1
  In  In13  1  0.84583105  0.84583105  0.25588550  1
  In  In14  1  0.15416895  0.15416895  0.74411450  1
  In  In15  1  0.84583105  0.84583105  0.74411450  1
