# generated using pymatgen
data_DyCoSn
_symmetry_space_group_name_H-M   'P 1'
_cell_length_a   4.58150871
_cell_length_b   7.35652750
_cell_length_c   7.23464515
_cell_angle_alpha   90.00000000
_cell_angle_beta   90.00000000
_cell_angle_gamma   90.00000000
_symmetry_Int_Tables_number   1
_chemical_formula_structural   DyCoSn
_chemical_formula_sum   'Dy4 Co4 Sn4'
_cell_volume   243.83644264
_cell_formula_units_Z   4
loop_
 _symmetry_equiv_pos_site_id
 _symmetry_equiv_pos_as_xyz
  1  'x, y, z'
loop_
 _atom_site_type_symbol
 _atom_site_label
 _atom_site_symmetry_multiplicity
 _atom_site_fract_x
 _atom_site_fract_y
 _atom_site_fract_z
 _atom_site_occupancy
  Co  Co0  1  0.75000000  0.35188365  0.05766790  1
  Co  Co1  1  0.25000000  0.14811635  0.55766790  1
  Co  Co2  1  0.75000000  0.85188365  0.44233210  1
  Co  Co3  1  0.25000000  0.64811635  0.94233210  1
  Sn  Sn4  1  0.25000000  0.79713286  0.61083861  1
  Sn  Sn5  1  0.75000000  0.70286714  0.11083861  1
  Sn  Sn6  1  0.25000000  0.29713286  0.88916139  1
  Sn  Sn7  1  0.75000000  0.20286714  0.38916139  1
  Dy  Dy8  1  0.25000000  0.47448636  0.30145304  1
  Dy  Dy9  1  0.75000000  0.52551364  0.69854696  1
  Dy  Dy10  1  0.25000000  0.97448636  0.19854696  1
  Dy  Dy11  1  0.75000000  0.02551364  0.80145304  1
