# generated using pymatgen
data_CeSbRh
_symmetry_space_group_name_H-M   'P 1'
_cell_length_a   4.65769706
_cell_length_b   7.34159098
_cell_length_c   7.83682310
_cell_angle_alpha   90.00000000
_cell_angle_beta   90.00000000
_cell_angle_gamma   90.00000000
_symmetry_Int_Tables_number   1
_chemical_formula_structural   CeSbRh
_chemical_formula_sum   'Ce4 Sb4 Rh4'
_cell_volume   267.97943491
_cell_formula_units_Z   4
loop_
 _symmetry_equiv_pos_site_id
 _symmetry_equiv_pos_as_xyz
  1  'x, y, z'
loop_
 _atom_site_type_symbol
 _atom_site_label
 _atom_site_symmetry_multiplicity
 _atom_site_fract_x
 _atom_site_fract_y
 _atom_site_fract_z
 _atom_site_occupancy
  Rh  Rh0  1  0.75000000  0.21378169  0.92300830  1
  Rh  Rh1  1  0.25000000  0.28621831  0.42300830  1
  Rh  Rh2  1  0.75000000  0.71378169  0.57699170  1
  Rh  Rh3  1  0.25000000  0.78621831  0.07699170  1
  Sb  Sb4  1  0.25000000  0.18568706  0.09148342  1
  Sb  Sb5  1  0.75000000  0.31431294  0.59148342  1
  Sb  Sb6  1  0.25000000  0.68568706  0.40851658  1
  Sb  Sb7  1  0.75000000  0.81431294  0.90851658  1
  Ce  Ce8  1  0.25000000  0.51354476  0.80156385  1
  Ce  Ce9  1  0.75000000  0.48645524  0.19843615  1
  Ce  Ce10  1  0.25000000  0.01354476  0.69843615  1
  Ce  Ce11  1  0.75000000  0.98645524  0.30156385  1
