# generated using pymatgen
data_Fe2OF3
_symmetry_space_group_name_H-M   'P 1'
_cell_length_a   4.74312571
_cell_length_b   10.76575949
_cell_length_c   5.77716846
_cell_angle_alpha   82.65488433
_cell_angle_beta   90.00000000
_cell_angle_gamma   90.00000000
_symmetry_Int_Tables_number   1
_chemical_formula_structural   Fe2OF3
_chemical_formula_sum   'Fe8 O4 F12'
_cell_volume   292.58081996
_cell_formula_units_Z   4
loop_
 _symmetry_equiv_pos_site_id
 _symmetry_equiv_pos_as_xyz
  1  'x, y, z'
loop_
 _atom_site_type_symbol
 _atom_site_label
 _atom_site_symmetry_multiplicity
 _atom_site_fract_x
 _atom_site_fract_y
 _atom_site_fract_z
 _atom_site_occupancy
  Fe  Fe0  1  0.50000000  0.50000000  0.00000000  1
  Fe  Fe1  1  0.50000000  0.00000000  0.50000000  1
  Fe  Fe2  1  0.47562663  0.26749340  0.74367202  1
  Fe  Fe3  1  0.52437337  0.73250660  0.25632798  1
  Fe  Fe4  1  0.02437337  0.76749340  0.74367202  1
  Fe  Fe5  1  0.00000000  0.50000000  0.50000000  1
  Fe  Fe6  1  0.97562663  0.23250660  0.25632798  1
  Fe  Fe7  1  0.00000000  0.00000000  0.00000000  1
  O  O8  1  0.80718156  0.07778590  0.27849109  1
  O  O9  1  0.69281844  0.57778590  0.27849109  1
  O  O10  1  0.30718156  0.42221410  0.72150891  1
  O  O11  1  0.19281844  0.92221410  0.72150891  1
  F  F12  1  0.79414787  0.31413883  0.51713057  1
  F  F13  1  0.81670710  0.59554173  0.78152980  1
  F  F14  1  0.78998474  0.81816800  0.01593977  1
  F  F15  1  0.70585213  0.81413883  0.51713057  1
  F  F16  1  0.68329290  0.09554173  0.78152980  1
  F  F17  1  0.71001526  0.31816800  0.01593977  1
  F  F18  1  0.31670710  0.90445827  0.21847020  1
  F  F19  1  0.29414787  0.18586117  0.48286943  1
  F  F20  1  0.28998474  0.68183200  0.98406023  1
  F  F21  1  0.21001526  0.18183200  0.98406023  1
  F  F22  1  0.20585213  0.68586117  0.48286943  1
  F  F23  1  0.18329290  0.40445827  0.21847020  1
