# generated using pymatgen
data_ErSiRu
_symmetry_space_group_name_H-M   'P 1'
_cell_length_a   4.30536001
_cell_length_b   6.94455825
_cell_length_c   7.11351374
_cell_angle_alpha   90.00000000
_cell_angle_beta   90.00000000
_cell_angle_gamma   90.00000000
_symmetry_Int_Tables_number   1
_chemical_formula_structural   ErSiRu
_chemical_formula_sum   'Er4 Si4 Ru4'
_cell_volume   212.68569090
_cell_formula_units_Z   4
loop_
 _symmetry_equiv_pos_site_id
 _symmetry_equiv_pos_as_xyz
  1  'x, y, z'
loop_
 _atom_site_type_symbol
 _atom_site_label
 _atom_site_symmetry_multiplicity
 _atom_site_fract_x
 _atom_site_fract_y
 _atom_site_fract_z
 _atom_site_occupancy
  Si  Si0  1  0.25000000  0.30234823  0.89343761  1
  Si  Si1  1  0.75000000  0.69765177  0.10656239  1
  Si  Si2  1  0.25000000  0.80234823  0.60656239  1
  Si  Si3  1  0.75000000  0.19765177  0.39343761  1
  Ru  Ru4  1  0.75000000  0.84572514  0.43395560  1
  Ru  Ru5  1  0.25000000  0.15427486  0.56604440  1
  Ru  Ru6  1  0.75000000  0.34572514  0.06604440  1
  Ru  Ru7  1  0.25000000  0.65427486  0.93395560  1
  Er  Er8  1  0.25000000  0.98795533  0.18747278  1
  Er  Er9  1  0.75000000  0.01204467  0.81252722  1
  Er  Er10  1  0.25000000  0.48795533  0.31252722  1
  Er  Er11  1  0.75000000  0.51204467  0.68747278  1
