# generated using pymatgen
data_Mg2SiB2Ir5
_symmetry_space_group_name_H-M   'P 1'
_cell_length_a   2.91488062
_cell_length_b   9.41888460
_cell_length_c   9.41888460
_cell_angle_alpha   90.00000000
_cell_angle_beta   90.00000000
_cell_angle_gamma   90.00000000
_symmetry_Int_Tables_number   1
_chemical_formula_structural   Mg2SiB2Ir5
_chemical_formula_sum   'Mg4 Si2 B4 Ir10'
_cell_volume   258.59476258
_cell_formula_units_Z   2
loop_
 _symmetry_equiv_pos_site_id
 _symmetry_equiv_pos_as_xyz
  1  'x, y, z'
loop_
 _atom_site_type_symbol
 _atom_site_label
 _atom_site_symmetry_multiplicity
 _atom_site_fract_x
 _atom_site_fract_y
 _atom_site_fract_z
 _atom_site_occupancy
  B  B0  1  0.00000000  0.87429682  0.37429682  1
  B  B1  1  0.00000000  0.37429682  0.12570318  1
  B  B2  1  0.00000000  0.62570318  0.87429682  1
  B  B3  1  0.00000000  0.12570318  0.62570318  1
  Mg  Mg4  1  0.00000000  0.82474837  0.67525163  1
  Mg  Mg5  1  0.00000000  0.32474837  0.82474837  1
  Mg  Mg6  1  0.00000000  0.67525163  0.17525163  1
  Mg  Mg7  1  0.00000000  0.17525163  0.32474837  1
  Si  Si8  1  0.00000000  0.50000000  0.50000000  1
  Si  Si9  1  0.00000000  0.00000000  0.00000000  1
  Ir  Ir10  1  0.50000000  0.00000000  0.50000000  1
  Ir  Ir11  1  0.50000000  0.29057404  0.57180032  1
  Ir  Ir12  1  0.50000000  0.57180032  0.70942596  1
  Ir  Ir13  1  0.50000000  0.42819968  0.29057404  1
  Ir  Ir14  1  0.50000000  0.92819968  0.20942596  1
  Ir  Ir15  1  0.50000000  0.50000000  0.00000000  1
  Ir  Ir16  1  0.50000000  0.20942596  0.07180032  1
  Ir  Ir17  1  0.50000000  0.07180032  0.79057404  1
  Ir  Ir18  1  0.50000000  0.79057404  0.92819968  1
  Ir  Ir19  1  0.50000000  0.70942596  0.42819968  1
