# generated using pymatgen
data_MnAs
_symmetry_space_group_name_H-M   'P 1'
_cell_length_a   3.42267518
_cell_length_b   5.55722078
_cell_length_c   6.03514172
_cell_angle_alpha   90.00000000
_cell_angle_beta   90.00000000
_cell_angle_gamma   90.00000000
_symmetry_Int_Tables_number   1
_chemical_formula_structural   MnAs
_chemical_formula_sum   'Mn4 As4'
_cell_volume   114.79178505
_cell_formula_units_Z   4
loop_
 _symmetry_equiv_pos_site_id
 _symmetry_equiv_pos_as_xyz
  1  'x, y, z'
loop_
 _atom_site_type_symbol
 _atom_site_label
 _atom_site_symmetry_multiplicity
 _atom_site_fract_x
 _atom_site_fract_y
 _atom_site_fract_z
 _atom_site_occupancy
  Mn  Mn0  1  0.75000000  0.99670992  0.81020204  1
  Mn  Mn1  1  0.25000000  0.00329008  0.18979796  1
  Mn  Mn2  1  0.75000000  0.49670992  0.68979796  1
  Mn  Mn3  1  0.25000000  0.50329008  0.31020204  1
  As  As4  1  0.75000000  0.80352607  0.41883057  1
  As  As5  1  0.25000000  0.19647393  0.58116943  1
  As  As6  1  0.75000000  0.30352607  0.08116943  1
  As  As7  1  0.25000000  0.69647393  0.91883057  1
