# generated using pymatgen
data_CsSr2Nb3O10
_symmetry_space_group_name_H-M   'P 1'
_cell_length_a   3.99915524
_cell_length_b   3.99915524
_cell_length_c   15.67114984
_cell_angle_alpha   90.00000000
_cell_angle_beta   90.00000000
_cell_angle_gamma   90.00000000
_symmetry_Int_Tables_number   1
_chemical_formula_structural   CsSr2Nb3O10
_chemical_formula_sum   'Cs1 Sr2 Nb3 O10'
_cell_volume   250.63250174
_cell_formula_units_Z   1
loop_
 _symmetry_equiv_pos_site_id
 _symmetry_equiv_pos_as_xyz
  1  'x, y, z'
loop_
 _atom_site_type_symbol
 _atom_site_label
 _atom_site_symmetry_multiplicity
 _atom_site_fract_x
 _atom_site_fract_y
 _atom_site_fract_z
 _atom_site_occupancy
  O  O0  1  0.00000000  0.00000000  0.60362274  1
  O  O1  1  0.00000000  0.00000000  0.39637726  1
  O  O2  1  0.50000000  0.00000000  0.74402868  1
  O  O3  1  0.00000000  0.50000000  0.74402868  1
  O  O4  1  0.50000000  0.00000000  0.25597132  1
  O  O5  1  0.00000000  0.50000000  0.25597132  1
  O  O6  1  0.00000000  0.50000000  0.00000000  1
  O  O7  1  0.50000000  0.00000000  0.00000000  1
  O  O8  1  0.00000000  0.00000000  0.12669843  1
  O  O9  1  0.00000000  0.00000000  0.87330157  1
  Sr  Sr10  1  0.50000000  0.50000000  0.85500432  1
  Sr  Sr11  1  0.50000000  0.50000000  0.14499568  1
  Nb  Nb12  1  0.00000000  0.00000000  0.71812188  1
  Nb  Nb13  1  0.00000000  0.00000000  0.28187812  1
  Nb  Nb14  1  0.00000000  0.00000000  0.00000000  1
  Cs  Cs15  1  0.50000000  0.50000000  0.50000000  1
