# generated using pymatgen
data_Li2MnF6
_symmetry_space_group_name_H-M   'P 1'
_cell_length_a   5.28007134
_cell_length_b   6.81025301
_cell_length_c   7.75365990
_cell_angle_alpha   93.03279306
_cell_angle_beta   82.15575865
_cell_angle_gamma   112.80873418
_symmetry_Int_Tables_number   1
_chemical_formula_structural   Li2MnF6
_chemical_formula_sum   'Li4 Mn2 F12'
_cell_volume   254.60414588
_cell_formula_units_Z   2
loop_
 _symmetry_equiv_pos_site_id
 _symmetry_equiv_pos_as_xyz
  1  'x, y, z'
loop_
 _atom_site_type_symbol
 _atom_site_label
 _atom_site_symmetry_multiplicity
 _atom_site_fract_x
 _atom_site_fract_y
 _atom_site_fract_z
 _atom_site_occupancy
  Li  Li0  1  0.26687781  0.55255087  0.55250571  1
  Li  Li1  1  0.28567306  0.55255087  0.94749429  1
  Li  Li2  1  0.71432694  0.44744913  0.05250571  1
  Li  Li3  1  0.73312219  0.44744913  0.44749429  1
  Mn  Mn4  1  0.12907958  0.25815917  0.25000000  1
  Mn  Mn5  1  0.87092042  0.74184083  0.75000000  1
  F  F6  1  0.25193492  0.06984100  0.31394668  1
  F  F7  1  0.01945340  0.47964307  0.17824535  1
  F  F8  1  0.96311808  0.29091311  0.47154873  1
  F  F9  1  0.32779503  0.29091311  0.02845127  1
  F  F10  1  0.46018967  0.47964307  0.32175465  1
  F  F11  1  0.81790708  0.06984100  0.18605332  1
  F  F12  1  0.18209292  0.93015900  0.81394668  1
  F  F13  1  0.53981033  0.52035693  0.67824535  1
  F  F14  1  0.67220497  0.70908689  0.97154873  1
  F  F15  1  0.03688192  0.70908689  0.52845127  1
  F  F16  1  0.98054660  0.52035693  0.82175465  1
  F  F17  1  0.74806508  0.93015900  0.68605332  1
