# generated using pymatgen
data_Ag5(PbO3)2
_symmetry_space_group_name_H-M   'P 1'
_cell_length_a   6.07129653
_cell_length_b   6.07129652
_cell_length_c   6.52792620
_cell_angle_alpha   90.00000000
_cell_angle_beta   90.00000000
_cell_angle_gamma   120.00000000
_symmetry_Int_Tables_number   1
_chemical_formula_structural   Ag5(PbO3)2
_chemical_formula_sum   'Ag5 Pb2 O6'
_cell_volume   208.38610475
_cell_formula_units_Z   1
loop_
 _symmetry_equiv_pos_site_id
 _symmetry_equiv_pos_as_xyz
  1  'x, y, z'
loop_
 _atom_site_type_symbol
 _atom_site_label
 _atom_site_symmetry_multiplicity
 _atom_site_fract_x
 _atom_site_fract_y
 _atom_site_fract_z
 _atom_site_occupancy
  O  O0  1  0.62268951  0.62268951  0.30814285  1
  O  O1  1  0.37731049  0.37731049  0.69185715  1
  O  O2  1  0.00000000  0.62268951  0.69185715  1
  O  O3  1  0.62268951  0.00000000  0.69185715  1
  O  O4  1  0.00000000  0.37731049  0.30814285  1
  O  O5  1  0.37731049  0.00000000  0.30814285  1
  Ag  Ag6  1  0.00000000  0.00000000  0.23697974  1
  Ag  Ag7  1  0.00000000  0.50000000  0.00000000  1
  Ag  Ag8  1  0.50000000  0.00000000  0.00000000  1
  Ag  Ag9  1  0.00000000  0.00000000  0.76302026  1
  Ag  Ag10  1  0.50000000  0.50000000  0.00000000  1
  Pb  Pb11  1  0.66666667  0.33333333  0.50000000  1
  Pb  Pb12  1  0.33333333  0.66666667  0.50000000  1
