# generated using pymatgen
data_P2Pb2O7
_symmetry_space_group_name_H-M   'P 1'
_cell_length_a   7.08867565
_cell_length_b   7.16108287
_cell_length_c   12.97486561
_cell_angle_alpha   84.05015366
_cell_angle_beta   90.69641049
_cell_angle_gamma   89.39113930
_symmetry_Int_Tables_number   1
_chemical_formula_structural   P2Pb2O7
_chemical_formula_sum   'P8 Pb8 O28'
_cell_volume   654.99458421
_cell_formula_units_Z   4
loop_
 _symmetry_equiv_pos_site_id
 _symmetry_equiv_pos_as_xyz
  1  'x, y, z'
loop_
 _atom_site_type_symbol
 _atom_site_label
 _atom_site_symmetry_multiplicity
 _atom_site_fract_x
 _atom_site_fract_y
 _atom_site_fract_z
 _atom_site_occupancy
  O  O0  1  0.55411160  0.54955647  0.18232642  1
  O  O1  1  0.44588840  0.45044353  0.81767358  1
  O  O2  1  0.40736457  0.79499952  0.04596549  1
  O  O3  1  0.59263543  0.20500048  0.95403451  1
  O  O4  1  0.71592988  0.86271310  0.14131168  1
  O  O5  1  0.28407012  0.13728690  0.85868832  1
  O  O6  1  0.70969298  0.61352919  0.01247849  1
  O  O7  1  0.29030702  0.38647081  0.98752151  1
  O  O8  1  0.69434964  0.82648874  0.84234484  1
  O  O9  1  0.30565036  0.17351126  0.15765516  1
  O  O10  1  0.90590803  0.53048317  0.86203307  1
  O  O11  1  0.09409197  0.46951683  0.13796693  1
  O  O12  1  0.99226785  0.81644409  0.95339285  1
  O  O13  1  0.00773215  0.18355591  0.04660715  1
  O  O14  1  0.31021789  0.52345953  0.44413680  1
  O  O15  1  0.68978211  0.47654047  0.55586320  1
  O  O16  1  0.90795913  0.09538198  0.31341683  1
  O  O17  1  0.09204087  0.90461802  0.68658317  1
  O  O18  1  0.60117723  0.24377559  0.36159069  1
  O  O19  1  0.39882277  0.75622441  0.63840931  1
  O  O20  1  0.70317924  0.92499365  0.45606006  1
  O  O21  1  0.29682076  0.07500635  0.54393994  1
  O  O22  1  0.88715457  0.21909371  0.48620546  1
  O  O23  1  0.11284543  0.78090629  0.51379454  1
  O  O24  1  0.99633490  0.35916023  0.64805839  1
  O  O25  1  0.00366510  0.64083977  0.35194161  1
  O  O26  1  0.70170230  0.15444671  0.65568152  1
  O  O27  1  0.29829770  0.84555329  0.34431848  1
  P  P28  1  0.58907015  0.71323486  0.09972015  1
  P  P29  1  0.41092985  0.28676514  0.90027985  1
  P  P30  1  0.83112231  0.69806013  0.91223908  1
  P  P31  1  0.16887769  0.30193987  0.08776092  1
  P  P32  1  0.18129052  0.69456431  0.40794616  1
  P  P33  1  0.81870948  0.30543569  0.59205384  1
  P  P34  1  0.23311283  0.88756143  0.59954712  1
  P  P35  1  0.76688717  0.11243857  0.40045288  1
  Pb  Pb36  1  0.64762741  0.62277361  0.36837916  1
  Pb  Pb37  1  0.35237259  0.37722639  0.63162084  1
  Pb  Pb38  1  0.09262569  0.80687068  0.14239389  1
  Pb  Pb39  1  0.90737431  0.19312932  0.85760611  1
  Pb  Pb40  1  0.67467267  0.21328874  0.14075157  1
  Pb  Pb41  1  0.32532733  0.78671126  0.85924843  1
  Pb  Pb42  1  0.24764507  0.18891613  0.35408854  1
  Pb  Pb43  1  0.75235493  0.81108387  0.64591146  1
