# generated using pymatgen
data_Co2O3F
_symmetry_space_group_name_H-M   'P 1'
_cell_length_a   4.56529237
_cell_length_b   4.56529237
_cell_length_c   8.71603819
_cell_angle_alpha   90.00000000
_cell_angle_beta   90.00000000
_cell_angle_gamma   95.16328238
_symmetry_Int_Tables_number   1
_chemical_formula_structural   Co2O3F
_chemical_formula_sum   'Co6 O9 F3'
_cell_volume   180.92162628
_cell_formula_units_Z   3
loop_
 _symmetry_equiv_pos_site_id
 _symmetry_equiv_pos_as_xyz
  1  'x, y, z'
loop_
 _atom_site_type_symbol
 _atom_site_label
 _atom_site_symmetry_multiplicity
 _atom_site_fract_x
 _atom_site_fract_y
 _atom_site_fract_z
 _atom_site_occupancy
  Co  Co0  1  0.00292260  0.99707740  0.00122905  1
  Co  Co1  1  0.00292260  0.99707740  0.33210395  1
  Co  Co2  1  0.01245162  0.98754838  0.66666700  1
  Co  Co3  1  0.54002399  0.45997601  0.16666700  1
  Co  Co4  1  0.47022351  0.52977649  0.83601826  1
  Co  Co5  1  0.47022351  0.52977649  0.49731574  1
  O  O6  1  0.18434205  0.81565795  0.83805004  1
  O  O7  1  0.18434205  0.81565795  0.49528296  1
  O  O8  1  0.31417107  0.30282652  0.33275361  1
  O  O9  1  0.31417107  0.30282652  0.00058039  1
  O  O10  1  0.29790057  0.32065960  0.66666700  1
  O  O11  1  0.67934040  0.70209943  0.66666700  1
  O  O12  1  0.69717348  0.68582893  0.00058039  1
  O  O13  1  0.69717348  0.68582893  0.33275361  1
  O  O14  1  0.82549666  0.17450334  0.16666700  1
  F  F15  1  0.20728289  0.79271711  0.16666700  1
  F  F16  1  0.79991873  0.20008127  0.83406174  1
  F  F17  1  0.79991873  0.20008127  0.49927126  1
