# generated using pymatgen
data_EuInPd
_symmetry_space_group_name_H-M   'P 1'
_cell_length_a   4.50945720
_cell_length_b   7.51366476
_cell_length_c   8.64743344
_cell_angle_alpha   90.00000000
_cell_angle_beta   90.00000000
_cell_angle_gamma   90.00000000
_symmetry_Int_Tables_number   1
_chemical_formula_structural   EuInPd
_chemical_formula_sum   'Eu4 In4 Pd4'
_cell_volume   292.99709288
_cell_formula_units_Z   4
loop_
 _symmetry_equiv_pos_site_id
 _symmetry_equiv_pos_as_xyz
  1  'x, y, z'
loop_
 _atom_site_type_symbol
 _atom_site_label
 _atom_site_symmetry_multiplicity
 _atom_site_fract_x
 _atom_site_fract_y
 _atom_site_fract_z
 _atom_site_occupancy
  Pd  Pd0  1  0.75000000  0.23163764  0.87470469  1
  Pd  Pd1  1  0.25000000  0.26836236  0.37470469  1
  Pd  Pd2  1  0.75000000  0.73163764  0.62529531  1
  Pd  Pd3  1  0.25000000  0.76836236  0.12529531  1
  In  In4  1  0.25000000  0.14629304  0.06215180  1
  In  In5  1  0.75000000  0.35370696  0.56215180  1
  In  In6  1  0.25000000  0.64629304  0.43784820  1
  In  In7  1  0.75000000  0.85370696  0.93784820  1
  Eu  Eu8  1  0.25000000  0.53468801  0.82105696  1
  Eu  Eu9  1  0.75000000  0.46531199  0.17894304  1
  Eu  Eu10  1  0.25000000  0.03468801  0.67894304  1
  Eu  Eu11  1  0.75000000  0.96531199  0.32105696  1
