# generated using pymatgen
data_Na2PtO2
_symmetry_space_group_name_H-M   'P 1'
_cell_length_a   3.18054233
_cell_length_b   4.63834497
_cell_length_c   5.56563692
_cell_angle_alpha   114.61417922
_cell_angle_beta   106.60250769
_cell_angle_gamma   89.99999996
_symmetry_Int_Tables_number   1
_chemical_formula_structural   Na2PtO2
_chemical_formula_sum   'Na2 Pt1 O2'
_cell_volume   70.86349674
_cell_formula_units_Z   1
loop_
 _symmetry_equiv_pos_site_id
 _symmetry_equiv_pos_as_xyz
  1  'x, y, z'
loop_
 _atom_site_type_symbol
 _atom_site_label
 _atom_site_symmetry_multiplicity
 _atom_site_fract_x
 _atom_site_fract_y
 _atom_site_fract_z
 _atom_site_occupancy
  O  O0  1  0.36136936  0.86136230  0.72273873  1
  O  O1  1  0.63863064  0.13863770  0.27726127  1
  Na  Na2  1  0.67748275  0.67747945  0.35496549  1
  Na  Na3  1  0.32251725  0.32252055  0.64503451  1
  Pt  Pt4  1  0.00000000  0.00000000  0.00000000  1
