# generated using pymatgen
data_TbGePt
_symmetry_space_group_name_H-M   'P 1'
_cell_length_a   4.38716336
_cell_length_b   7.08590017
_cell_length_c   7.67258268
_cell_angle_alpha   90.00000000
_cell_angle_beta   90.00000000
_cell_angle_gamma   90.00000000
_symmetry_Int_Tables_number   1
_chemical_formula_structural   TbGePt
_chemical_formula_sum   'Tb4 Ge4 Pt4'
_cell_volume   238.51759004
_cell_formula_units_Z   4
loop_
 _symmetry_equiv_pos_site_id
 _symmetry_equiv_pos_as_xyz
  1  'x, y, z'
loop_
 _atom_site_type_symbol
 _atom_site_label
 _atom_site_symmetry_multiplicity
 _atom_site_fract_x
 _atom_site_fract_y
 _atom_site_fract_z
 _atom_site_occupancy
  Ge  Ge0  1  0.25000000  0.81192523  0.08732063  1
  Ge  Ge1  1  0.25000000  0.31192523  0.41267937  1
  Ge  Ge2  1  0.75000000  0.18807477  0.91267937  1
  Ge  Ge3  1  0.75000000  0.68807477  0.58732063  1
  Tb  Tb4  1  0.75000000  0.50392769  0.20329441  1
  Tb  Tb5  1  0.25000000  0.99607231  0.70329441  1
  Tb  Tb6  1  0.75000000  0.00392769  0.29670559  1
  Tb  Tb7  1  0.25000000  0.49607231  0.79670559  1
  Pt  Pt8  1  0.25000000  0.70517382  0.41392354  1
  Pt  Pt9  1  0.25000000  0.20517382  0.08607646  1
  Pt  Pt10  1  0.75000000  0.79482618  0.91392354  1
  Pt  Pt11  1  0.75000000  0.29482618  0.58607646  1
