# generated using pymatgen
data_Rb3InS3
_symmetry_space_group_name_H-M   'P 1'
_cell_length_a   8.03505737
_cell_length_b   8.25736332
_cell_length_c   8.25736332
_cell_angle_alpha   113.47067487
_cell_angle_beta   96.26507595
_cell_angle_gamma   96.26507588
_symmetry_Int_Tables_number   1
_chemical_formula_structural   Rb3InS3
_chemical_formula_sum   'Rb6 In2 S6'
_cell_volume   492.48840323
_cell_formula_units_Z   2
loop_
 _symmetry_equiv_pos_site_id
 _symmetry_equiv_pos_as_xyz
  1  'x, y, z'
loop_
 _atom_site_type_symbol
 _atom_site_label
 _atom_site_symmetry_multiplicity
 _atom_site_fract_x
 _atom_site_fract_y
 _atom_site_fract_z
 _atom_site_occupancy
  S  S0  1  0.72563077  0.05171415  0.34539506  1
  S  S1  1  0.82282905  0.60105395  0.60105395  1
  S  S2  1  0.17717095  0.39894605  0.39894605  1
  S  S3  1  0.27436923  0.94828585  0.65460494  1
  S  S4  1  0.27436923  0.65460494  0.94828585  1
  S  S5  1  0.72563077  0.34539506  0.05171415  1
  Rb  Rb6  1  0.00000000  0.25277734  0.74722266  1
  Rb  Rb7  1  0.50000000  0.32074901  0.67925099  1
  Rb  Rb8  1  0.35350720  0.11267265  0.11267265  1
  Rb  Rb9  1  0.50000000  0.67925099  0.32074901  1
  Rb  Rb10  1  0.00000000  0.74722266  0.25277734  1
  Rb  Rb11  1  0.64649280  0.88732735  0.88732735  1
  In  In12  1  0.14663136  0.67534038  0.67534038  1
  In  In13  1  0.85336864  0.32465962  0.32465962  1
