# generated using pymatgen
data_PuGa3
_symmetry_space_group_name_H-M   'P 1'
_cell_length_a   10.20544615
_cell_length_b   10.20544614
_cell_length_c   10.20544615
_cell_angle_alpha   35.09084705
_cell_angle_beta   35.09084708
_cell_angle_gamma   35.09084704
_symmetry_Int_Tables_number   1
_chemical_formula_structural   PuGa3
_chemical_formula_sum   'Pu4 Ga12'
_cell_volume   313.69172487
_cell_formula_units_Z   4
loop_
 _symmetry_equiv_pos_site_id
 _symmetry_equiv_pos_as_xyz
  1  'x, y, z'
loop_
 _atom_site_type_symbol
 _atom_site_label
 _atom_site_symmetry_multiplicity
 _atom_site_fract_x
 _atom_site_fract_y
 _atom_site_fract_z
 _atom_site_occupancy
  Ga  Ga0  1  0.20831174  0.20831174  0.70919176  1
  Ga  Ga1  1  0.20831174  0.70919176  0.20831174  1
  Ga  Ga2  1  0.70919176  0.20831174  0.20831174  1
  Ga  Ga3  1  0.29080824  0.79168826  0.79168826  1
  Ga  Ga4  1  0.61042132  0.15435212  0.61042132  1
  Ga  Ga5  1  0.61042132  0.61042132  0.15435212  1
  Ga  Ga6  1  0.15435212  0.61042132  0.61042132  1
  Ga  Ga7  1  0.84564788  0.38957868  0.38957868  1
  Ga  Ga8  1  0.38957868  0.84564788  0.38957868  1
  Ga  Ga9  1  0.38957868  0.38957868  0.84564788  1
  Ga  Ga10  1  0.79168826  0.29080824  0.79168826  1
  Ga  Ga11  1  0.79168826  0.79168826  0.29080824  1
  Pu  Pu12  1  0.71110390  0.71110390  0.71110390  1
  Pu  Pu13  1  0.28889610  0.28889610  0.28889610  1
  Pu  Pu14  1  0.87200478  0.87200478  0.87200478  1
  Pu  Pu15  1  0.12799522  0.12799522  0.12799522  1
