# generated using pymatgen
data_NaNd2OsO6
_symmetry_space_group_name_H-M   'P 1'
_cell_length_a   5.57089924
_cell_length_b   5.98701323
_cell_length_c   8.04886109
_cell_angle_alpha   90.00000000
_cell_angle_beta   91.03379178
_cell_angle_gamma   90.00000000
_symmetry_Int_Tables_number   1
_chemical_formula_structural   NaNd2OsO6
_chemical_formula_sum   'Na2 Nd4 Os2 O12'
_cell_volume   268.41034916
_cell_formula_units_Z   2
loop_
 _symmetry_equiv_pos_site_id
 _symmetry_equiv_pos_as_xyz
  1  'x, y, z'
loop_
 _atom_site_type_symbol
 _atom_site_label
 _atom_site_symmetry_multiplicity
 _atom_site_fract_x
 _atom_site_fract_y
 _atom_site_fract_z
 _atom_site_occupancy
  O  O0  1  0.83725651  0.71839869  0.57133170  1
  O  O1  1  0.66274349  0.21839869  0.92866830  1
  O  O2  1  0.16274349  0.28160131  0.42866830  1
  O  O3  1  0.33725651  0.78160131  0.07133170  1
  O  O4  1  0.12378728  0.05294552  0.72998747  1
  O  O5  1  0.37621272  0.55294552  0.77001253  1
  O  O6  1  0.87621272  0.94705448  0.27001253  1
  O  O7  1  0.62378728  0.44705448  0.22998747  1
  O  O8  1  0.20668462  0.32707219  0.05309003  1
  O  O9  1  0.29331538  0.82707219  0.44690997  1
  O  O10  1  0.79331538  0.67292781  0.94690997  1
  O  O11  1  0.70668462  0.17292781  0.55309003  1
  Na  Na12  1  0.50000000  0.50000000  0.50000000  1
  Na  Na13  1  0.00000000  0.00000000  0.00000000  1
  Nd  Nd14  1  0.47821203  0.07168903  0.25382327  1
  Nd  Nd15  1  0.02178797  0.57168903  0.24617673  1
  Nd  Nd16  1  0.97821203  0.42831097  0.75382327  1
  Nd  Nd17  1  0.52178797  0.92831097  0.74617673  1
  Os  Os18  1  0.50000000  0.50000000  0.00000000  1
  Os  Os19  1  0.00000000  0.00000000  0.50000000  1
