# generated using pymatgen
data_FeOF
_symmetry_space_group_name_H-M   'P 1'
_cell_length_a   14.14130490
_cell_length_b   14.24729546
_cell_length_c   3.09745471
_cell_angle_alpha   90.00000000
_cell_angle_beta   90.00000000
_cell_angle_gamma   90.19088127
_symmetry_Int_Tables_number   1
_chemical_formula_structural   FeOF
_chemical_formula_sum   'Fe18 O18 F18'
_cell_volume   624.05730564
_cell_formula_units_Z   18
loop_
 _symmetry_equiv_pos_site_id
 _symmetry_equiv_pos_as_xyz
  1  'x, y, z'
loop_
 _atom_site_type_symbol
 _atom_site_label
 _atom_site_symmetry_multiplicity
 _atom_site_fract_x
 _atom_site_fract_y
 _atom_site_fract_z
 _atom_site_occupancy
  Fe  Fe0  1  0.01325594  0.99650612  0.00000000  1
  Fe  Fe1  1  0.01791830  0.33744973  0.00000000  1
  Fe  Fe2  1  0.00696223  0.66379779  0.00000000  1
  Fe  Fe3  1  0.15363451  0.16497962  0.50000000  1
  Fe  Fe4  1  0.15277210  0.50250591  0.50000000  1
  Fe  Fe5  1  0.17367831  0.85028853  0.50000000  1
  Fe  Fe6  1  0.34212861  0.99406291  0.00000000  1
  Fe  Fe7  1  0.34088176  0.33540416  0.00000000  1
  Fe  Fe8  1  0.34309306  0.66376783  0.00000000  1
  Fe  Fe9  1  0.48670761  0.49907913  0.50000000  1
  Fe  Fe10  1  0.47851825  0.16709858  0.50000000  1
  Fe  Fe11  1  0.48543908  0.83031503  0.50000000  1
  Fe  Fe12  1  0.67266611  0.00385599  0.00000000  1
  Fe  Fe13  1  0.67676205  0.32850800  0.00000000  1
  Fe  Fe14  1  0.68011370  0.66570743  0.00000000  1
  Fe  Fe15  1  0.82231684  0.16483039  0.50000000  1
  Fe  Fe16  1  0.81884753  0.49562503  0.50000000  1
  Fe  Fe17  1  0.84098409  0.81163081  0.50000000  1
  O  O18  1  0.06501049  0.27101764  0.50000000  1
  O  O19  1  0.06818809  0.60082227  0.50000000  1
  O  O20  1  0.06148458  0.93203451  0.50000000  1
  O  O21  1  0.10112462  0.10223063  0.00000000  1
  O  O22  1  0.10206237  0.44281067  0.00000000  1
  O  O23  1  0.23526423  0.90336827  0.00000000  1
  O  O24  1  0.39308613  0.27235989  0.50000000  1
  O  O25  1  0.39717799  0.60248699  0.50000000  1
  O  O26  1  0.40448134  0.93794329  0.50000000  1
  O  O27  1  0.43484466  0.10156765  0.00000000  1
  O  O28  1  0.43464611  0.43600174  0.00000000  1
  O  O29  1  0.43509380  0.76779575  0.00000000  1
  O  O30  1  0.72948956  0.26423906  0.50000000  1
  O  O31  1  0.73130097  0.60216167  0.50000000  1
  O  O32  1  0.76691215  0.09701298  0.00000000  1
  O  O33  1  0.76551762  0.43258966  0.00000000  1
  O  O34  1  0.76760813  0.77220183  0.00000000  1
  O  O35  1  0.94332468  0.72792497  0.50000000  1
  F  F36  1  0.10946225  0.76971632  0.00000000  1
  F  F37  1  0.23108546  0.23431223  0.00000000  1
  F  F38  1  0.22925651  0.56847596  0.00000000  1
  F  F39  1  0.26845909  0.07137167  0.50000000  1
  F  F40  1  0.26638406  0.73125454  0.50000000  1
  F  F41  1  0.26238057  0.40261955  0.50000000  1
  F  F42  1  0.56451071  0.23051518  0.00000000  1
  F  F43  1  0.56593488  0.56590110  0.00000000  1
  F  F44  1  0.57300158  0.90150457  0.00000000  1
  F  F45  1  0.60229008  0.06246918  0.50000000  1
  F  F46  1  0.59955568  0.39650759  0.50000000  1
  F  F47  1  0.60112939  0.73417869  0.50000000  1
  F  F48  1  0.72968848  0.93568125  0.50000000  1
  F  F49  1  0.89591504  0.22844393  0.00000000  1
  F  F50  1  0.89783520  0.55955433  0.00000000  1
  F  F51  1  0.89542336  0.90199825  0.00000000  1
  F  F52  1  0.93180309  0.06641030  0.50000000  1
  F  F53  1  0.93258895  0.39710487  0.50000000  1
