# generated using pymatgen
data_K4PbO4
_symmetry_space_group_name_H-M   'P 1'
_cell_length_a   6.70194441
_cell_length_b   6.69375020
_cell_length_c   10.01340786
_cell_angle_alpha   71.53292769
_cell_angle_beta   79.74418205
_cell_angle_gamma   67.54395881
_symmetry_Int_Tables_number   1
_chemical_formula_structural   K4PbO4
_chemical_formula_sum   'K8 Pb2 O8'
_cell_volume   392.93774927
_cell_formula_units_Z   2
loop_
 _symmetry_equiv_pos_site_id
 _symmetry_equiv_pos_as_xyz
  1  'x, y, z'
loop_
 _atom_site_type_symbol
 _atom_site_label
 _atom_site_symmetry_multiplicity
 _atom_site_fract_x
 _atom_site_fract_y
 _atom_site_fract_z
 _atom_site_occupancy
  K  K0  1  0.22802007  0.48623099  0.06237293  1
  K  K1  1  0.72673837  0.95778098  0.11351374  1
  K  K2  1  0.24790019  0.58684835  0.67285357  1
  K  K3  1  0.74688667  0.76181656  0.52320259  1
  K  K4  1  0.25311333  0.23818344  0.47679741  1
  K  K5  1  0.27326163  0.04221902  0.88648626  1
  K  K6  1  0.77197993  0.51376901  0.93762707  1
  K  K7  1  0.75209981  0.41315165  0.32714643  1
  Pb  Pb8  1  0.22015795  0.84695073  0.25501934  1
  Pb  Pb9  1  0.77984205  0.15304927  0.74498066  1
  O  O10  1  0.97380986  0.35734049  0.69307496  1
  O  O11  1  0.52491236  0.29708236  0.88299071  1
  O  O12  1  0.02619014  0.64265951  0.30692504  1
  O  O13  1  0.47508764  0.70291764  0.11700929  1
  O  O14  1  0.02407003  0.17006596  0.14223219  1
  O  O15  1  0.37313854  0.84047335  0.42273649  1
  O  O16  1  0.62686146  0.15952665  0.57726351  1
  O  O17  1  0.97592997  0.82993404  0.85776781  1
