# generated using pymatgen
data_Sm(FeGe)2
_symmetry_space_group_name_H-M   'P 1'
_cell_length_a   3.99537230
_cell_length_b   3.99537230
_cell_length_c   6.08121226
_cell_angle_alpha   109.17783592
_cell_angle_beta   109.17783595
_cell_angle_gamma   89.99999992
_symmetry_Int_Tables_number   1
_chemical_formula_structural   Sm(FeGe)2
_chemical_formula_sum   'Sm1 Fe2 Ge2'
_cell_volume   85.96285527
_cell_formula_units_Z   1
loop_
 _symmetry_equiv_pos_site_id
 _symmetry_equiv_pos_as_xyz
  1  'x, y, z'
loop_
 _atom_site_type_symbol
 _atom_site_label
 _atom_site_symmetry_multiplicity
 _atom_site_fract_x
 _atom_site_fract_y
 _atom_site_fract_z
 _atom_site_occupancy
  Fe  Fe0  1  0.25000000  0.75000000  0.50000000  1
  Fe  Fe1  1  0.75000000  0.25000000  0.50000000  1
  Ge  Ge2  1  0.61978507  0.61978507  0.23957013  1
  Ge  Ge3  1  0.38021493  0.38021493  0.76042987  1
  Sm  Sm4  1  0.00000000  0.00000000  0.00000000  1
