# generated using pymatgen
data_Li2VO2F
_symmetry_space_group_name_H-M   'P 1'
_cell_length_a   6.00786674
_cell_length_b   6.02346301
_cell_length_c   7.92565725
_cell_angle_alpha   100.70539816
_cell_angle_beta   67.72254266
_cell_angle_gamma   119.91117115
_symmetry_Int_Tables_number   1
_chemical_formula_structural   Li2VO2F
_chemical_formula_sum   'Li8 V4 O8 F4'
_cell_volume   230.05257466
_cell_formula_units_Z   4
loop_
 _symmetry_equiv_pos_site_id
 _symmetry_equiv_pos_as_xyz
  1  'x, y, z'
loop_
 _atom_site_type_symbol
 _atom_site_label
 _atom_site_symmetry_multiplicity
 _atom_site_fract_x
 _atom_site_fract_y
 _atom_site_fract_z
 _atom_site_occupancy
  Li  Li0  1  0.09792462  0.85166919  0.13554253  1
  Li  Li1  1  0.08059664  0.30664966  0.14559940  1
  Li  Li2  1  0.61795465  0.85143744  0.13555748  1
  Li  Li3  1  0.58842469  0.32083013  0.14386814  1
  Li  Li4  1  0.40893410  0.66498845  0.84754706  1
  Li  Li5  1  0.38173525  0.15701222  0.85540974  1
  Li  Li6  1  0.91516541  0.69040186  0.85983886  1
  Li  Li7  1  0.91984477  0.15668296  0.85553811  1
  V  V8  1  0.23719028  0.49677711  0.50842879  1
  V  V9  1  0.25039736  0.00006392  0.49933959  1
  V  V10  1  0.75156475  0.49713591  0.50711164  1
  V  V11  1  0.75106932  0.00782369  0.50574121  1
  O  O12  1  0.15503678  0.66458785  0.35496041  1
  O  O13  1  0.99960404  0.99985005  0.00063557  1
  O  O14  1  0.15600205  0.16994492  0.35343102  1
  O  O15  1  0.34750231  0.83108283  0.64679922  1
  O  O16  1  0.34582704  0.33723239  0.64566307  1
  O  O17  1  0.83397338  0.82879627  0.64680436  1
  O  O18  1  0.66327617  0.17244016  0.35338316  1
  O  O19  1  0.83785476  0.33242010  0.65803943  1
  F  F20  1  0.99963903  0.50126218  0.00232794  1
  F  F21  1  0.49952646  0.50107336  0.00249440  1
  F  F22  1  0.66164828  0.66178078  0.33630082  1
  F  F23  1  0.49926586  0.99805658  0.99963903  1
