# generated using pymatgen
data_CeReB4
_symmetry_space_group_name_H-M   'P 1'
_cell_length_a   3.67941389
_cell_length_b   6.01276945
_cell_length_c   11.65361405
_cell_angle_alpha   90.00000000
_cell_angle_beta   90.00000000
_cell_angle_gamma   90.00000000
_symmetry_Int_Tables_number   1
_chemical_formula_structural   CeReB4
_chemical_formula_sum   'Ce4 Re4 B16'
_cell_volume   257.81835090
_cell_formula_units_Z   4
loop_
 _symmetry_equiv_pos_site_id
 _symmetry_equiv_pos_as_xyz
  1  'x, y, z'
loop_
 _atom_site_type_symbol
 _atom_site_label
 _atom_site_symmetry_multiplicity
 _atom_site_fract_x
 _atom_site_fract_y
 _atom_site_fract_z
 _atom_site_occupancy
  B  B0  1  0.50000000  0.52451652  0.80945961  1
  B  B1  1  0.50000000  0.47548348  0.19054039  1
  B  B2  1  0.50000000  0.02451652  0.69054039  1
  B  B3  1  0.50000000  0.97548348  0.30945961  1
  B  B4  1  0.50000000  0.38805073  0.04610137  1
  B  B5  1  0.50000000  0.61194927  0.95389863  1
  B  B6  1  0.50000000  0.88805073  0.45389863  1
  B  B7  1  0.50000000  0.11194927  0.54610137  1
  B  B8  1  0.50000000  0.21421250  0.81501287  1
  B  B9  1  0.50000000  0.78578750  0.18498713  1
  B  B10  1  0.50000000  0.71421250  0.68498713  1
  B  B11  1  0.50000000  0.28578750  0.31501287  1
  B  B12  1  0.50000000  0.13784498  0.96861822  1
  B  B13  1  0.50000000  0.86215502  0.03138178  1
  B  B14  1  0.50000000  0.63784498  0.53138178  1
  B  B15  1  0.50000000  0.36215502  0.46861822  1
  Ce  Ce16  1  0.00000000  0.12686455  0.15027620  1
  Ce  Ce17  1  0.00000000  0.87313545  0.84972380  1
  Ce  Ce18  1  0.00000000  0.62686455  0.34972380  1
  Ce  Ce19  1  0.00000000  0.37313545  0.65027620  1
  Re  Re20  1  0.00000000  0.13590873  0.40902020  1
  Re  Re21  1  0.00000000  0.86409127  0.59097980  1
  Re  Re22  1  0.00000000  0.63590873  0.09097980  1
  Re  Re23  1  0.00000000  0.36409127  0.90902020  1
