# generated using pymatgen
data_Ba3InRu2O9
_symmetry_space_group_name_H-M   'P 1'
_cell_length_a   5.91301460
_cell_length_b   5.91301460
_cell_length_c   14.45055230
_cell_angle_alpha   90.00000000
_cell_angle_beta   90.00000000
_cell_angle_gamma   119.99999998
_symmetry_Int_Tables_number   1
_chemical_formula_structural   Ba3InRu2O9
_chemical_formula_sum   'Ba6 In2 Ru4 O18'
_cell_volume   437.55533232
_cell_formula_units_Z   2
loop_
 _symmetry_equiv_pos_site_id
 _symmetry_equiv_pos_as_xyz
  1  'x, y, z'
loop_
 _atom_site_type_symbol
 _atom_site_label
 _atom_site_symmetry_multiplicity
 _atom_site_fract_x
 _atom_site_fract_y
 _atom_site_fract_z
 _atom_site_occupancy
  O  O0  1  0.17326708  0.82673292  0.08590275  1
  O  O1  1  0.17326708  0.34653416  0.08590275  1
  O  O2  1  0.65346584  0.82673292  0.08590275  1
  O  O3  1  0.34653416  0.17326708  0.58590275  1
  O  O4  1  0.82673292  0.65346584  0.91409725  1
  O  O5  1  0.82673292  0.17326708  0.58590275  1
  O  O6  1  0.82673292  0.65346584  0.58590275  1
  O  O7  1  0.17326708  0.82673292  0.41409725  1
  O  O8  1  0.65346584  0.82673292  0.41409725  1
  O  O9  1  0.34653416  0.17326708  0.91409725  1
  O  O10  1  0.82673292  0.17326708  0.91409725  1
  O  O11  1  0.17326708  0.34653416  0.41409725  1
  O  O12  1  0.48930702  0.97861403  0.25000000  1
  O  O13  1  0.51069298  0.48930702  0.75000000  1
  O  O14  1  0.97861403  0.48930702  0.75000000  1
  O  O15  1  0.02138597  0.51069298  0.25000000  1
  O  O16  1  0.48930702  0.51069298  0.25000000  1
  O  O17  1  0.51069298  0.02138597  0.75000000  1
  Ru  Ru18  1  0.33333333  0.66666667  0.33653191  1
  Ru  Ru19  1  0.66666667  0.33333333  0.83653191  1
  Ru  Ru20  1  0.66666667  0.33333333  0.66346809  1
  Ru  Ru21  1  0.33333333  0.66666667  0.16346809  1
  In  In22  1  0.00000000  0.00000000  0.50000000  1
  In  In23  1  0.00000000  0.00000000  0.00000000  1
  Ba  Ba24  1  0.33333333  0.66666667  0.58901573  1
  Ba  Ba25  1  0.66666667  0.33333333  0.08901573  1
  Ba  Ba26  1  0.66666667  0.33333333  0.41098427  1
  Ba  Ba27  1  0.33333333  0.66666667  0.91098427  1
  Ba  Ba28  1  0.00000000  0.00000000  0.75000000  1
  Ba  Ba29  1  0.00000000  0.00000000  0.25000000  1
