# generated using pymatgen
data_U(CuSi)2
_symmetry_space_group_name_H-M   'P 1'
_cell_length_a   3.92234929
_cell_length_b   3.92234928
_cell_length_c   5.73444296
_cell_angle_alpha   109.99872027
_cell_angle_beta   109.99872019
_cell_angle_gamma   89.99999996
_symmetry_Int_Tables_number   1
_chemical_formula_structural   U(CuSi)2
_chemical_formula_sum   'U1 Si2 Cu2'
_cell_volume   77.21806063
_cell_formula_units_Z   1
loop_
 _symmetry_equiv_pos_site_id
 _symmetry_equiv_pos_as_xyz
  1  'x, y, z'
loop_
 _atom_site_type_symbol
 _atom_site_label
 _atom_site_symmetry_multiplicity
 _atom_site_fract_x
 _atom_site_fract_y
 _atom_site_fract_z
 _atom_site_occupancy
  Si  Si0  1  0.61530699  0.61530699  0.23061398  1
  Si  Si1  1  0.38469301  0.38469301  0.76938602  1
  Cu  Cu2  1  0.25000000  0.75000000  0.50000000  1
  Cu  Cu3  1  0.75000000  0.25000000  0.50000000  1
  U  U4  1  0.00000000  0.00000000  0.00000000  1
