# generated using pymatgen
data_Nd2Re3Si5
_symmetry_space_group_name_H-M   'P 1'
_cell_length_a   5.71927282
_cell_length_b   11.05179489
_cell_length_c   11.05179489
_cell_angle_alpha   90.00000000
_cell_angle_beta   90.00000000
_cell_angle_gamma   90.00000000
_symmetry_Int_Tables_number   1
_chemical_formula_structural   Nd2Re3Si5
_chemical_formula_sum   'Nd8 Si20 Re12'
_cell_volume   698.56439472
_cell_formula_units_Z   4
loop_
 _symmetry_equiv_pos_site_id
 _symmetry_equiv_pos_as_xyz
  1  'x, y, z'
loop_
 _atom_site_type_symbol
 _atom_site_label
 _atom_site_symmetry_multiplicity
 _atom_site_fract_x
 _atom_site_fract_y
 _atom_site_fract_z
 _atom_site_occupancy
  Si  Si0  1  0.50000000  0.02437354  0.31632704  1
  Si  Si1  1  0.50000000  0.97562646  0.68367296  1
  Si  Si2  1  0.50000000  0.31632704  0.97562646  1
  Si  Si3  1  0.50000000  0.68367296  0.02437354  1
  Si  Si4  1  0.00000000  0.81632704  0.52437354  1
  Si  Si5  1  0.00000000  0.47562646  0.81632704  1
  Si  Si6  1  0.00000000  0.52437354  0.18367296  1
  Si  Si7  1  0.00000000  0.18367296  0.47562646  1
  Si  Si8  1  0.75000000  0.17132239  0.67132239  1
  Si  Si9  1  0.75000000  0.32867761  0.17132239  1
  Si  Si10  1  0.75000000  0.67132239  0.82867761  1
  Si  Si11  1  0.75000000  0.82867761  0.32867761  1
  Si  Si12  1  0.25000000  0.82867761  0.32867761  1
  Si  Si13  1  0.26215033  0.00000000  0.00000000  1
  Si  Si14  1  0.25000000  0.32867761  0.17132239  1
  Si  Si15  1  0.25000000  0.17132239  0.67132239  1
  Si  Si16  1  0.76215033  0.50000000  0.50000000  1
  Si  Si17  1  0.73784967  0.00000000  0.00000000  1
  Si  Si18  1  0.23784967  0.50000000  0.50000000  1
  Si  Si19  1  0.25000000  0.67132239  0.82867761  1
  Nd  Nd20  1  0.50000000  0.26340635  0.42287631  1
  Nd  Nd21  1  0.00000000  0.76340635  0.07712369  1
  Nd  Nd22  1  0.00000000  0.23659365  0.92287631  1
  Nd  Nd23  1  0.00000000  0.92287631  0.76340635  1
  Nd  Nd24  1  0.50000000  0.57712369  0.26340635  1
  Nd  Nd25  1  0.50000000  0.42287631  0.73659365  1
  Nd  Nd26  1  0.50000000  0.73659365  0.57712369  1
  Nd  Nd27  1  0.00000000  0.07712369  0.23659365  1
  Re  Re28  1  0.25000000  0.50000000  0.00000000  1
  Re  Re29  1  0.75000000  0.00000000  0.50000000  1
  Re  Re30  1  0.75000000  0.50000000  0.00000000  1
  Re  Re31  1  0.25000000  0.00000000  0.50000000  1
  Re  Re32  1  0.00000000  0.37526790  0.35158919  1
  Re  Re33  1  0.00000000  0.64841081  0.37526790  1
  Re  Re34  1  0.00000000  0.35158919  0.62473210  1
  Re  Re35  1  0.00000000  0.62473210  0.64841081  1
  Re  Re36  1  0.50000000  0.87526790  0.14841081  1
  Re  Re37  1  0.50000000  0.12473210  0.85158919  1
  Re  Re38  1  0.50000000  0.85158919  0.87526790  1
  Re  Re39  1  0.50000000  0.14841081  0.12473210  1
