# generated using pymatgen
data_Li2VO2F
_symmetry_space_group_name_H-M   'P 1'
_cell_length_a   6.02283345
_cell_length_b   6.02318617
_cell_length_c   7.96039567
_cell_angle_alpha   101.07864239
_cell_angle_beta   67.58951560
_cell_angle_gamma   120.11067666
_symmetry_Int_Tables_number   1
_chemical_formula_structural   Li2VO2F
_chemical_formula_sum   'Li8 V4 O8 F4'
_cell_volume   230.94177554
_cell_formula_units_Z   4
loop_
 _symmetry_equiv_pos_site_id
 _symmetry_equiv_pos_as_xyz
  1  'x, y, z'
loop_
 _atom_site_type_symbol
 _atom_site_label
 _atom_site_symmetry_multiplicity
 _atom_site_fract_x
 _atom_site_fract_y
 _atom_site_fract_z
 _atom_site_occupancy
  Li  Li0  1  0.09841088  0.81448333  0.13512922  1
  Li  Li1  1  0.08067908  0.34732831  0.14698665  1
  Li  Li2  1  0.58860780  0.83910214  0.14385370  1
  Li  Li3  1  0.61863058  0.33479570  0.13623186  1
  Li  Li4  1  0.38046503  0.65048567  0.85504138  1
  Li  Li5  1  0.40957503  0.17023017  0.84885272  1
  Li  Li6  1  0.91440816  0.65132643  0.85977604  1
  Li  Li7  1  0.92030182  0.19405068  0.85720570  1
  V  V8  1  0.23871871  0.49576971  0.50818362  1
  V  V9  1  0.24939070  0.99923625  0.49896022  1
  V  V10  1  0.75116250  0.49685908  0.50528655  1
  V  V11  1  0.75065271  0.00680689  0.50680387  1
  O  O12  1  0.00061134  0.50109361  0.00241502  1
  O  O13  1  0.15597510  0.66070552  0.35443593  1
  O  O14  1  0.15366518  0.16959754  0.35567241  1
  O  O15  1  0.34626700  0.83329235  0.64527996  1
  O  O16  1  0.34730637  0.33738500  0.64627501  1
  O  O17  1  0.83711123  0.82935152  0.64453280  1
  O  O18  1  0.66111261  0.16665060  0.35337340  1
  O  O19  1  0.83505341  0.33300004  0.65728680  1
  F  F20  1  0.99907950  0.99877818  0.00047688  1
  F  F21  1  0.50011139  0.50144553  0.00274967  1
  F  F22  1  0.66273236  0.66818923  0.33576127  1
  F  F23  1  0.49993252  0.00003553  0.99943032  1
