# generated using pymatgen
data_NdSnPd
_symmetry_space_group_name_H-M   'P 1'
_cell_length_a   7.68851080
_cell_length_b   7.68851080
_cell_length_c   4.13077780
_cell_angle_alpha   90.00000000
_cell_angle_beta   90.00000000
_cell_angle_gamma   120.00000000
_symmetry_Int_Tables_number   1
_chemical_formula_structural   NdSnPd
_chemical_formula_sum   'Nd3 Sn3 Pd3'
_cell_volume   211.46910320
_cell_formula_units_Z   3
loop_
 _symmetry_equiv_pos_site_id
 _symmetry_equiv_pos_as_xyz
  1  'x, y, z'
loop_
 _atom_site_type_symbol
 _atom_site_label
 _atom_site_symmetry_multiplicity
 _atom_site_fract_x
 _atom_site_fract_y
 _atom_site_fract_z
 _atom_site_occupancy
  Pd  Pd0  1  0.66666667  0.33333333  0.50000000  1
  Pd  Pd1  1  0.00000000  0.00000000  0.00000000  1
  Pd  Pd2  1  0.33333333  0.66666667  0.50000000  1
  Sn  Sn3  1  0.74764652  0.74764652  0.50000000  1
  Sn  Sn4  1  0.00000000  0.25235348  0.50000000  1
  Sn  Sn5  1  0.25235348  0.00000000  0.50000000  1
  Nd  Nd6  1  0.00000000  0.58938874  0.00000000  1
  Nd  Nd7  1  0.41061126  0.41061126  0.00000000  1
  Nd  Nd8  1  0.58938874  0.00000000  0.00000000  1
