# generated using pymatgen
data_CuTeO4
_symmetry_space_group_name_H-M   'P 1'
_cell_length_a   4.78163100
_cell_length_b   5.60119494
_cell_length_c   10.49065061
_cell_angle_alpha   90.00000000
_cell_angle_beta   90.00000000
_cell_angle_gamma   90.82150051
_symmetry_Int_Tables_number   1
_chemical_formula_structural   CuTeO4
_chemical_formula_sum   'Cu4 Te4 O16'
_cell_volume   280.94061457
_cell_formula_units_Z   4
loop_
 _symmetry_equiv_pos_site_id
 _symmetry_equiv_pos_as_xyz
  1  'x, y, z'
loop_
 _atom_site_type_symbol
 _atom_site_label
 _atom_site_symmetry_multiplicity
 _atom_site_fract_x
 _atom_site_fract_y
 _atom_site_fract_z
 _atom_site_occupancy
  O  O0  1  0.20750574  0.26992945  0.41836685  1
  O  O1  1  0.15847186  0.74265661  0.90629272  1
  O  O2  1  0.65847186  0.24265661  0.59370728  1
  O  O3  1  0.84152814  0.25734339  0.09370728  1
  O  O4  1  0.77804939  0.53135391  0.31936134  1
  O  O5  1  0.72195061  0.96864609  0.81936134  1
  O  O6  1  0.22195061  0.46864609  0.68063866  1
  O  O7  1  0.27804939  0.03135391  0.18063866  1
  O  O8  1  0.29268880  0.53081768  0.16885378  1
  O  O9  1  0.70750574  0.76992945  0.08163315  1
  O  O10  1  0.70731120  0.46918232  0.83114622  1
  O  O11  1  0.79268880  0.03081768  0.33114622  1
  O  O12  1  0.20731120  0.96918232  0.66885378  1
  O  O13  1  0.29249426  0.23007055  0.91836685  1
  O  O14  1  0.79249426  0.73007055  0.58163315  1
  O  O15  1  0.34152814  0.75734339  0.40629272  1
  Cu  Cu16  1  0.00000000  0.00000000  0.00000000  1
  Cu  Cu17  1  0.50000000  0.50000000  0.50000000  1
  Cu  Cu18  1  0.50000000  0.50000000  0.00000000  1
  Cu  Cu19  1  0.00000000  0.00000000  0.50000000  1
  Te  Te20  1  0.53554774  0.79232601  0.24866389  1
  Te  Te21  1  0.96445226  0.70767399  0.74866389  1
  Te  Te22  1  0.46445226  0.20767399  0.75133611  1
  Te  Te23  1  0.03554774  0.29232601  0.25133611  1
