# generated using pymatgen
data_MnCu2SnSe4
_symmetry_space_group_name_H-M   'P 1'
_cell_length_a   5.79469992
_cell_length_b   5.79469992
_cell_length_c   7.05358493
_cell_angle_alpha   114.25275876
_cell_angle_beta   114.25275871
_cell_angle_gamma   90.00000003
_symmetry_Int_Tables_number   1
_chemical_formula_structural   MnCu2SnSe4
_chemical_formula_sum   'Mn1 Cu2 Sn1 Se4'
_cell_volume   192.78820015
_cell_formula_units_Z   1
loop_
 _symmetry_equiv_pos_site_id
 _symmetry_equiv_pos_as_xyz
  1  'x, y, z'
loop_
 _atom_site_type_symbol
 _atom_site_label
 _atom_site_symmetry_multiplicity
 _atom_site_fract_x
 _atom_site_fract_y
 _atom_site_fract_z
 _atom_site_occupancy
  Mn  Mn0  1  0.00000000  0.00000000  0.00000000  1
  Cu  Cu1  1  0.25000000  0.75000000  0.50000000  1
  Cu  Cu2  1  0.75000000  0.25000000  0.50000000  1
  Se  Se3  1  0.37786828  0.37786828  0.27199921  1
  Se  Se4  1  0.62213172  0.10586907  0.72800079  1
  Se  Se5  1  0.10586907  0.62213172  0.72800079  1
  Se  Se6  1  0.89413093  0.89413093  0.27199921  1
  Sn  Sn7  1  0.50000000  0.50000000  0.00000000  1
