# generated using pymatgen
data_Sc2FeB2Ir5
_symmetry_space_group_name_H-M   'P 1'
_cell_length_a   3.07685601
_cell_length_b   9.38048527
_cell_length_c   9.38048527
_cell_angle_alpha   90.00000000
_cell_angle_beta   90.00000000
_cell_angle_gamma   90.00000000
_symmetry_Int_Tables_number   1
_chemical_formula_structural   Sc2FeB2Ir5
_chemical_formula_sum   'Sc4 Fe2 B4 Ir10'
_cell_volume   270.74334132
_cell_formula_units_Z   2
loop_
 _symmetry_equiv_pos_site_id
 _symmetry_equiv_pos_as_xyz
  1  'x, y, z'
loop_
 _atom_site_type_symbol
 _atom_site_label
 _atom_site_symmetry_multiplicity
 _atom_site_fract_x
 _atom_site_fract_y
 _atom_site_fract_z
 _atom_site_occupancy
  B  B0  1  0.00000000  0.87544712  0.37544712  1
  B  B1  1  0.00000000  0.62455288  0.87544712  1
  B  B2  1  0.00000000  0.37544712  0.12455288  1
  B  B3  1  0.00000000  0.12455288  0.62455288  1
  Sc  Sc4  1  0.00000000  0.67643627  0.17643627  1
  Sc  Sc5  1  0.00000000  0.32356373  0.82356373  1
  Sc  Sc6  1  0.00000000  0.17643627  0.32356373  1
  Sc  Sc7  1  0.00000000  0.82356373  0.67643627  1
  Fe  Fe8  1  0.00000000  0.00000000  0.00000000  1
  Fe  Fe9  1  0.00000000  0.50000000  0.50000000  1
  Ir  Ir10  1  0.50000000  0.00000000  0.50000000  1
  Ir  Ir11  1  0.50000000  0.56950928  0.71568713  1
  Ir  Ir12  1  0.50000000  0.28431287  0.56950928  1
  Ir  Ir13  1  0.50000000  0.71568713  0.43049072  1
  Ir  Ir14  1  0.50000000  0.43049072  0.28431287  1
  Ir  Ir15  1  0.50000000  0.50000000  0.00000000  1
  Ir  Ir16  1  0.50000000  0.78431287  0.93049072  1
  Ir  Ir17  1  0.50000000  0.06950928  0.78431287  1
  Ir  Ir18  1  0.50000000  0.93049072  0.21568713  1
  Ir  Ir19  1  0.50000000  0.21568713  0.06950928  1
