# generated using pymatgen
data_Nd2NiB10
_symmetry_space_group_name_H-M   'P 1'
_cell_length_a   4.19556700
_cell_length_b   5.63722034
_cell_length_c   11.23441439
_cell_angle_alpha   90.00000000
_cell_angle_beta   90.00000000
_cell_angle_gamma   90.00000000
_symmetry_Int_Tables_number   1
_chemical_formula_structural   Nd2NiB10
_chemical_formula_sum   'Nd4 Ni2 B20'
_cell_volume   265.70890535
_cell_formula_units_Z   2
loop_
 _symmetry_equiv_pos_site_id
 _symmetry_equiv_pos_as_xyz
  1  'x, y, z'
loop_
 _atom_site_type_symbol
 _atom_site_label
 _atom_site_symmetry_multiplicity
 _atom_site_fract_x
 _atom_site_fract_y
 _atom_site_fract_z
 _atom_site_occupancy
  B  B0  1  0.00000000  0.12558697  0.54136875  1
  B  B1  1  0.00000000  0.87441303  0.45863125  1
  B  B2  1  0.00000000  0.62558697  0.95863125  1
  B  B3  1  0.00000000  0.37441303  0.04136875  1
  B  B4  1  0.00000000  0.15522549  0.69764244  1
  B  B5  1  0.00000000  0.84477451  0.30235756  1
  B  B6  1  0.30018971  0.20354880  0.11436975  1
  B  B7  1  0.30018971  0.79645120  0.88563025  1
  B  B8  1  0.69981029  0.70354880  0.38563025  1
  B  B9  1  0.69981029  0.29645120  0.61436975  1
  B  B10  1  0.69981029  0.79645120  0.88563025  1
  B  B11  1  0.69981029  0.20354880  0.11436975  1
  B  B12  1  0.30018971  0.29645120  0.61436975  1
  B  B13  1  0.30018971  0.70354880  0.38563025  1
  B  B14  1  0.00000000  0.03559104  0.18746751  1
  B  B15  1  0.00000000  0.96440896  0.81253249  1
  B  B16  1  0.00000000  0.53559104  0.31253249  1
  B  B17  1  0.00000000  0.46440896  0.68746751  1
  B  B18  1  0.00000000  0.34477451  0.19764244  1
  B  B19  1  0.00000000  0.65522549  0.80235756  1
  Ni  Ni20  1  0.00000000  0.50000000  0.50000000  1
  Ni  Ni21  1  0.00000000  0.00000000  0.00000000  1
  Nd  Nd22  1  0.50000000  0.30895228  0.86320659  1
  Nd  Nd23  1  0.50000000  0.69104772  0.13679341  1
  Nd  Nd24  1  0.50000000  0.80895228  0.63679341  1
  Nd  Nd25  1  0.50000000  0.19104772  0.36320659  1
