# generated using pymatgen
data_Ba3CuRu2O9
_symmetry_space_group_name_H-M   'P 1'
_cell_length_a   5.76275708
_cell_length_b   5.92164170
_cell_length_c   14.40244539
_cell_angle_alpha   90.00000000
_cell_angle_beta   90.00000000
_cell_angle_gamma   119.11633099
_symmetry_Int_Tables_number   1
_chemical_formula_structural   Ba3CuRu2O9
_chemical_formula_sum   'Ba6 Cu2 Ru4 O18'
_cell_volume   429.37622001
_cell_formula_units_Z   2
loop_
 _symmetry_equiv_pos_site_id
 _symmetry_equiv_pos_as_xyz
  1  'x, y, z'
loop_
 _atom_site_type_symbol
 _atom_site_label
 _atom_site_symmetry_multiplicity
 _atom_site_fract_x
 _atom_site_fract_y
 _atom_site_fract_z
 _atom_site_occupancy
  O  O0  1  0.68750333  0.86754012  0.41063231  1
  O  O1  1  0.81996320  0.13245988  0.58936769  1
  O  O2  1  0.31249667  0.13245988  0.91063231  1
  O  O3  1  0.18003680  0.86754012  0.08936769  1
  O  O4  1  0.31249667  0.13245988  0.58936769  1
  O  O5  1  0.18003680  0.86754012  0.41063231  1
  O  O6  1  0.68750333  0.86754012  0.08936769  1
  O  O7  1  0.81996320  0.13245988  0.91063231  1
  O  O8  1  0.80284872  0.60569744  0.58116593  1
  O  O9  1  0.19715128  0.39430256  0.41883407  1
  O  O10  1  0.19715128  0.39430256  0.08116593  1
  O  O11  1  0.80284872  0.60569744  0.91883407  1
  O  O12  1  0.49832569  -0.00334862  0.75000000  1
  O  O13  1  0.50167431  1.00334862  0.25000000  1
  O  O14  1  0.94870989  0.44686539  0.75000000  1
  O  O15  1  0.50184450  0.55313461  0.25000000  1
  O  O16  1  0.05129011  0.55313461  0.25000000  1
  O  O17  1  0.49815550  0.44686539  0.75000000  1
  Cu  Cu18  1  0.00000000  0.00000000  0.50000000  1
  Cu  Cu19  1  0.00000000  0.00000000  0.00000000  1
  Ru  Ru20  1  0.35182357  0.70364714  0.34785055  1
  Ru  Ru21  1  0.64817643  0.29635286  0.65214945  1
  Ru  Ru22  1  0.64817643  0.29635286  0.84785055  1
  Ru  Ru23  1  0.35182357  0.70364714  0.15214945  1
  Ba  Ba24  1  0.32188873  0.64377747  0.59452694  1
  Ba  Ba25  1  0.67811127  0.35622253  0.40547306  1
  Ba  Ba26  1  0.67811127  0.35622253  0.09452694  1
  Ba  Ba27  1  0.32188873  0.64377747  0.90547306  1
  Ba  Ba28  1  0.01722082  0.03444165  0.25000000  1
  Ba  Ba29  1  0.98277918  0.96555835  0.75000000  1
