# generated using pymatgen
data_LuSiIr
_symmetry_space_group_name_H-M   'P 1'
_cell_length_a   4.17505101
_cell_length_b   6.71123663
_cell_length_c   7.42335919
_cell_angle_alpha   90.00000000
_cell_angle_beta   90.00000000
_cell_angle_gamma   90.00000000
_symmetry_Int_Tables_number   1
_chemical_formula_structural   LuSiIr
_chemical_formula_sum   'Lu4 Si4 Ir4'
_cell_volume   208.00070779
_cell_formula_units_Z   4
loop_
 _symmetry_equiv_pos_site_id
 _symmetry_equiv_pos_as_xyz
  1  'x, y, z'
loop_
 _atom_site_type_symbol
 _atom_site_label
 _atom_site_symmetry_multiplicity
 _atom_site_fract_x
 _atom_site_fract_y
 _atom_site_fract_z
 _atom_site_occupancy
  Si  Si0  1  0.25000000  0.70605824  0.38628522  1
  Si  Si1  1  0.25000000  0.20605824  0.11371478  1
  Si  Si2  1  0.75000000  0.29394176  0.61371478  1
  Si  Si3  1  0.75000000  0.79394176  0.88628522  1
  Lu  Lu4  1  0.75000000  0.50576717  0.18743088  1
  Lu  Lu5  1  0.25000000  0.99423283  0.68743088  1
  Lu  Lu6  1  0.75000000  0.00576717  0.31256912  1
  Lu  Lu7  1  0.25000000  0.49423283  0.81256912  1
  Ir  Ir8  1  0.25000000  0.84110139  0.06482084  1
  Ir  Ir9  1  0.25000000  0.34110139  0.43517916  1
  Ir  Ir10  1  0.75000000  0.65889861  0.56482084  1
  Ir  Ir11  1  0.75000000  0.15889861  0.93517916  1
