# generated using pymatgen
data_EuSbAu
_symmetry_space_group_name_H-M   'P 1'
_cell_length_a   4.74789391
_cell_length_b   4.74789391
_cell_length_c   8.35450828
_cell_angle_alpha   90.00000000
_cell_angle_beta   90.00000000
_cell_angle_gamma   119.99999995
_symmetry_Int_Tables_number   1
_chemical_formula_structural   EuSbAu
_chemical_formula_sum   'Eu2 Sb2 Au2'
_cell_volume   163.09984108
_cell_formula_units_Z   2
loop_
 _symmetry_equiv_pos_site_id
 _symmetry_equiv_pos_as_xyz
  1  'x, y, z'
loop_
 _atom_site_type_symbol
 _atom_site_label
 _atom_site_symmetry_multiplicity
 _atom_site_fract_x
 _atom_site_fract_y
 _atom_site_fract_z
 _atom_site_occupancy
  Sb  Sb0  1  0.66666667  0.33333333  0.75000000  1
  Sb  Sb1  1  0.33333333  0.66666667  0.25000000  1
  Eu  Eu2  1  0.00000000  0.00000000  0.50000000  1
  Eu  Eu3  1  0.00000000  0.00000000  0.00000000  1
  Au  Au4  1  0.33333333  0.66666667  0.75000000  1
  Au  Au5  1  0.66666667  0.33333333  0.25000000  1
