# generated using pymatgen
data_YbGePt
_symmetry_space_group_name_H-M   'P 1'
_cell_length_a   4.42194662
_cell_length_b   7.06352104
_cell_length_c   7.48807966
_cell_angle_alpha   90.00000000
_cell_angle_beta   90.00000000
_cell_angle_gamma   90.00000000
_symmetry_Int_Tables_number   1
_chemical_formula_structural   YbGePt
_chemical_formula_sum   'Yb4 Ge4 Pt4'
_cell_volume   233.88652140
_cell_formula_units_Z   4
loop_
 _symmetry_equiv_pos_site_id
 _symmetry_equiv_pos_as_xyz
  1  'x, y, z'
loop_
 _atom_site_type_symbol
 _atom_site_label
 _atom_site_symmetry_multiplicity
 _atom_site_fract_x
 _atom_site_fract_y
 _atom_site_fract_z
 _atom_site_occupancy
  Ge  Ge0  1  0.25000000  0.68369109  0.41725566  1
  Ge  Ge1  1  0.25000000  0.18369109  0.08274434  1
  Ge  Ge2  1  0.75000000  0.31630891  0.58274434  1
  Ge  Ge3  1  0.75000000  0.81630891  0.91725566  1
  Yb  Yb4  1  0.75000000  0.49057535  0.20068246  1
  Yb  Yb5  1  0.25000000  0.00942465  0.70068246  1
  Yb  Yb6  1  0.75000000  0.99057535  0.29931754  1
  Yb  Yb7  1  0.25000000  0.50942465  0.79931754  1
  Pt  Pt8  1  0.25000000  0.79722222  0.09212799  1
  Pt  Pt9  1  0.25000000  0.29722222  0.40787201  1
  Pt  Pt10  1  0.75000000  0.70277778  0.59212799  1
  Pt  Pt11  1  0.75000000  0.20277778  0.90787201  1
