# generated using pymatgen
data_Li3Fe2(BO4)2
_symmetry_space_group_name_H-M   'P 1'
_cell_length_a   6.63769232
_cell_length_b   5.19665122
_cell_length_c   10.94373008
_cell_angle_alpha   90.00000000
_cell_angle_beta   97.18109694
_cell_angle_gamma   90.00000000
_symmetry_Int_Tables_number   1
_chemical_formula_structural   Li3Fe2(BO4)2
_chemical_formula_sum   'Li6 Fe4 B4 O16'
_cell_volume   374.52949257
_cell_formula_units_Z   2
loop_
 _symmetry_equiv_pos_site_id
 _symmetry_equiv_pos_as_xyz
  1  'x, y, z'
loop_
 _atom_site_type_symbol
 _atom_site_label
 _atom_site_symmetry_multiplicity
 _atom_site_fract_x
 _atom_site_fract_y
 _atom_site_fract_z
 _atom_site_occupancy
  Li  Li0  1  0.10864104  0.34803299  0.78675100  1
  Li  Li1  1  0.10864104  0.15196701  0.28675100  1
  Li  Li2  1  0.79140946  0.66145485  0.93127405  1
  Li  Li3  1  0.79140946  0.83854515  0.43127405  1
  Li  Li4  1  0.90393116  0.85274149  0.70927052  1
  Li  Li5  1  0.90393116  0.64725851  0.20927052  1
  Fe  Fe6  1  0.51294103  0.15286621  0.84472101  1
  Fe  Fe7  1  0.49810771  0.66449677  0.65309508  1
  Fe  Fe8  1  0.51294103  0.34713379  0.34472101  1
  Fe  Fe9  1  0.49810771  0.83550323  0.15309508  1
  B  B10  1  0.19546245  0.82451911  0.92883017  1
  B  B11  1  0.19546245  0.67548089  0.42883017  1
  B  B12  1  0.79427980  0.33209441  0.56851554  1
  B  B13  1  0.79427980  0.16790559  0.06851554  1
  O  O14  1  0.04925550  0.68994869  0.85908194  1
  O  O15  1  0.04925550  0.81005131  0.35908194  1
  O  O16  1  0.25729972  0.06665989  0.89458135  1
  O  O17  1  0.25729972  0.43334011  0.39458135  1
  O  O18  1  0.28728134  0.77645840  0.53970808  1
  O  O19  1  0.28728134  0.72354160  0.03970808  1
  O  O20  1  0.39686367  0.38420905  0.72615443  1
  O  O21  1  0.39686367  0.11579095  0.22615443  1
  O  O22  1  0.62246137  0.84868643  0.78806416  1
  O  O23  1  0.62246137  0.65131357  0.28806416  1
  O  O24  1  0.71410150  0.29886375  0.96103901  1
  O  O25  1  0.71410150  0.20113625  0.46103901  1
  O  O26  1  0.74237155  0.59842083  0.57677496  1
  O  O27  1  0.74237155  0.90157917  0.07677496  1
  O  O28  1  0.90872871  0.20950438  0.65977771  1
  O  O29  1  0.90872871  0.29049562  0.15977771  1
