# generated using pymatgen
data_Zr3P
_symmetry_space_group_name_H-M   'P 1'
_cell_length_a   5.36022386
_cell_length_b   10.86765286
_cell_length_c   10.86765286
_cell_angle_alpha   90.00000000
_cell_angle_beta   90.00000000
_cell_angle_gamma   90.00000000
_symmetry_Int_Tables_number   1
_chemical_formula_structural   Zr3P
_chemical_formula_sum   'Zr24 P8'
_cell_volume   633.07394894
_cell_formula_units_Z   8
loop_
 _symmetry_equiv_pos_site_id
 _symmetry_equiv_pos_as_xyz
  1  'x, y, z'
loop_
 _atom_site_type_symbol
 _atom_site_label
 _atom_site_symmetry_multiplicity
 _atom_site_fract_x
 _atom_site_fract_y
 _atom_site_fract_z
 _atom_site_occupancy
  Zr  Zr0  1  0.52919378  0.11275194  0.27694202  1
  Zr  Zr1  1  0.02919378  0.72305798  0.61275194  1
  Zr  Zr2  1  0.02919378  0.77694202  0.88724806  1
  Zr  Zr3  1  0.52919378  0.38724806  0.22305798  1
  Zr  Zr4  1  0.47080622  0.88724806  0.72305798  1
  Zr  Zr5  1  0.97080622  0.27694202  0.38724806  1
  Zr  Zr6  1  0.97080622  0.22305798  0.11275194  1
  Zr  Zr7  1  0.47080622  0.61275194  0.77694202  1
  Zr  Zr8  1  0.23550421  0.07142658  0.53493409  1
  Zr  Zr9  1  0.73550421  0.46506591  0.57142658  1
  Zr  Zr10  1  0.73550421  0.03493409  0.92857342  1
  Zr  Zr11  1  0.23550421  0.42857342  0.96506591  1
  Zr  Zr12  1  0.76449579  0.92857342  0.46506591  1
  Zr  Zr13  1  0.26449579  0.53493409  0.42857342  1
  Zr  Zr14  1  0.26449579  0.96506591  0.07142658  1
  Zr  Zr15  1  0.76449579  0.57142658  0.03493409  1
  Zr  Zr16  1  0.28362696  0.66533162  0.14282090  1
  Zr  Zr17  1  0.78362696  0.85717910  0.16533162  1
  Zr  Zr18  1  0.78362696  0.64282090  0.33466838  1
  Zr  Zr19  1  0.28362696  0.83466838  0.35717910  1
  Zr  Zr20  1  0.71637304  0.33466838  0.85717910  1
  Zr  Zr21  1  0.21637304  0.14282090  0.83466838  1
  Zr  Zr22  1  0.21637304  0.35717910  0.66533162  1
  Zr  Zr23  1  0.71637304  0.16533162  0.64282090  1
  P  P24  1  0.96529671  0.54299876  0.79032697  1
  P  P25  1  0.46529671  0.20967303  0.04299876  1
  P  P26  1  0.46529671  0.29032697  0.45700124  1
  P  P27  1  0.96529671  0.95700124  0.70967303  1
  P  P28  1  0.03470329  0.45700124  0.20967303  1
  P  P29  1  0.53470329  0.79032697  0.95700124  1
  P  P30  1  0.53470329  0.70967303  0.54299876  1
  P  P31  1  0.03470329  0.04299876  0.29032697  1
