# generated using pymatgen
data_Ta2P
_symmetry_space_group_name_H-M   'P 1'
_cell_length_a   3.41690289
_cell_length_b   11.63507126
_cell_length_c   14.53000307
_cell_angle_alpha   90.00000000
_cell_angle_beta   90.00000000
_cell_angle_gamma   90.00000000
_symmetry_Int_Tables_number   1
_chemical_formula_structural   Ta2P
_chemical_formula_sum   'Ta24 P12'
_cell_volume   577.65347421
_cell_formula_units_Z   12
loop_
 _symmetry_equiv_pos_site_id
 _symmetry_equiv_pos_as_xyz
  1  'x, y, z'
loop_
 _atom_site_type_symbol
 _atom_site_label
 _atom_site_symmetry_multiplicity
 _atom_site_fract_x
 _atom_site_fract_y
 _atom_site_fract_z
 _atom_site_occupancy
  P  P0  1  0.50000000  0.81583419  0.84806857  1
  P  P1  1  0.50000000  0.18416581  0.15193143  1
  P  P2  1  0.00000000  0.31583419  0.65193143  1
  P  P3  1  0.00000000  0.68416581  0.34806857  1
  P  P4  1  0.50000000  0.25564535  0.91674293  1
  P  P5  1  0.50000000  0.74435465  0.08325707  1
  P  P6  1  0.00000000  0.75564535  0.58325707  1
  P  P7  1  0.00000000  0.24435465  0.41674293  1
  P  P8  1  0.50000000  0.07781950  0.70530110  1
  P  P9  1  0.50000000  0.92218050  0.29469890  1
  P  P10  1  0.00000000  0.57781950  0.79469890  1
  P  P11  1  0.00000000  0.42218050  0.20530110  1
  Ta  Ta12  1  0.00000000  0.47010366  0.39064622  1
  Ta  Ta13  1  0.00000000  0.52989634  0.60935378  1
  Ta  Ta14  1  0.50000000  0.97010366  0.10935378  1
  Ta  Ta15  1  0.50000000  0.02989634  0.89064622  1
  Ta  Ta16  1  0.00000000  0.80339813  0.20490334  1
  Ta  Ta17  1  0.00000000  0.19660187  0.79509666  1
  Ta  Ta18  1  0.50000000  0.30339813  0.29509666  1
  Ta  Ta19  1  0.50000000  0.69660187  0.70490334  1
  Ta  Ta20  1  0.00000000  0.87719782  0.42237705  1
  Ta  Ta21  1  0.00000000  0.12280218  0.57762295  1
  Ta  Ta22  1  0.50000000  0.37719782  0.07762295  1
  Ta  Ta23  1  0.50000000  0.62280218  0.92237705  1
  Ta  Ta24  1  0.50000000  0.91322145  0.57987158  1
  Ta  Ta25  1  0.50000000  0.08677855  0.42012842  1
  Ta  Ta26  1  0.00000000  0.41322145  0.92012842  1
  Ta  Ta27  1  0.00000000  0.58677855  0.07987158  1
  Ta  Ta28  1  0.50000000  0.42192745  0.75456624  1
  Ta  Ta29  1  0.50000000  0.57807255  0.24543376  1
  Ta  Ta30  1  0.00000000  0.92192745  0.74543376  1
  Ta  Ta31  1  0.00000000  0.07807255  0.25456624  1
  Ta  Ta32  1  0.50000000  0.34795758  0.52283970  1
  Ta  Ta33  1  0.50000000  0.65204242  0.47716030  1
  Ta  Ta34  1  0.00000000  0.84795758  0.97716030  1
  Ta  Ta35  1  0.00000000  0.15204242  0.02283970  1
