# generated using pymatgen
data_Cs6InAs3
_symmetry_space_group_name_H-M   'P 1'
_cell_length_a   6.46633181
_cell_length_b   10.78845588
_cell_length_c   12.44351538
_cell_angle_alpha   101.71567072
_cell_angle_beta   90.00000000
_cell_angle_gamma   90.00000000
_symmetry_Int_Tables_number   1
_chemical_formula_structural   Cs6InAs3
_chemical_formula_sum   'Cs12 In2 As6'
_cell_volume   849.99676120
_cell_formula_units_Z   2
loop_
 _symmetry_equiv_pos_site_id
 _symmetry_equiv_pos_as_xyz
  1  'x, y, z'
loop_
 _atom_site_type_symbol
 _atom_site_label
 _atom_site_symmetry_multiplicity
 _atom_site_fract_x
 _atom_site_fract_y
 _atom_site_fract_z
 _atom_site_occupancy
  As  As0  1  0.25000000  0.81241264  0.12182429  1
  As  As1  1  0.75000000  0.18758736  0.87817571  1
  As  As2  1  0.25000000  0.78928496  0.48939302  1
  As  As3  1  0.75000000  0.21071504  0.51060698  1
  As  As4  1  0.25000000  0.42222770  0.22710279  1
  As  As5  1  0.75000000  0.57777230  0.77289721  1
  In  In6  1  0.25000000  0.67160904  0.27878300  1
  In  In7  1  0.75000000  0.32839096  0.72121700  1
  Cs  Cs8  1  0.75000000  0.53466559  0.07313991  1
  Cs  Cs9  1  0.25000000  0.46533441  0.92686009  1
  Cs  Cs10  1  0.75000000  0.25652463  0.22414107  1
  Cs  Cs11  1  0.25000000  0.74347537  0.77585893  1
  Cs  Cs12  1  0.25000000  0.43723803  0.53630412  1
  Cs  Cs13  1  0.75000000  0.56276197  0.46369588  1
  Cs  Cs14  1  0.25000000  0.13474484  0.01699195  1
  Cs  Cs15  1  0.75000000  0.86525516  0.98300805  1
  Cs  Cs16  1  0.25000000  0.11996170  0.67567727  1
  Cs  Cs17  1  0.75000000  0.88003830  0.32432273  1
  Cs  Cs18  1  0.25000000  0.08287472  0.36312863  1
  Cs  Cs19  1  0.75000000  0.91712528  0.63687137  1
