# generated using pymatgen
data_Li2Ni3(BO3)3
_symmetry_space_group_name_H-M   'P 1'
_cell_length_a   8.10377924
_cell_length_b   8.10223789
_cell_length_c   6.06152079
_cell_angle_alpha   90.07892052
_cell_angle_beta   89.91082422
_cell_angle_gamma   60.07012371
_symmetry_Int_Tables_number   1
_chemical_formula_structural   Li2Ni3(BO3)3
_chemical_formula_sum   'Li4 Ni6 B6 O18'
_cell_volume   344.91287007
_cell_formula_units_Z   2
loop_
 _symmetry_equiv_pos_site_id
 _symmetry_equiv_pos_as_xyz
  1  'x, y, z'
loop_
 _atom_site_type_symbol
 _atom_site_label
 _atom_site_symmetry_multiplicity
 _atom_site_fract_x
 _atom_site_fract_y
 _atom_site_fract_z
 _atom_site_occupancy
  Li  Li0  1  0.27699461  0.69737322  0.25496958  1
  Li  Li1  1  0.02398520  0.27606227  0.74967917  1
  Li  Li2  1  0.69946331  0.02503088  0.75455268  1
  Li  Li3  1  0.69997920  0.02410220  0.25173482  1
  Ni  Ni4  1  0.37959967  0.98366944  0.99796983  1
  Ni  Ni5  1  0.37592004  0.98411965  0.49816232  1
  Ni  Ni6  1  0.63218803  0.38532696  0.00211926  1
  Ni  Ni7  1  0.63172401  0.38493579  0.50471128  1
  Ni  Ni8  1  0.99107871  0.62686753  0.00244204  1
  Ni  Ni9  1  0.98865251  0.62668357  0.50095225  1
  B  B10  1  0.33420289  0.33153215  0.25097594  1
  B  B11  1  0.33669496  0.33065429  0.74969601  1
  B  B12  1  0.99788822  0.00029218  0.00283264  1
  B  B13  1  0.99379497  0.00028273  0.50150995  1
  B  B14  1  0.67147818  0.66801459  0.75170302  1
  B  B15  1  0.66291651  0.66704147  0.25133014  1
  O  O16  1  0.08831108  0.80413774  0.48978960  1
  O  O17  1  0.09101399  0.80443208  0.01930466  1
  O  O18  1  0.46475211  0.78378838  0.24770230  1
  O  O19  1  0.47673357  0.78402686  0.74792575  1
  O  O20  1  0.14063465  0.45416101  0.25125713  1
  O  O21  1  0.14089310  0.44585706  0.75004571  1
  O  O22  1  0.10340153  0.08941642  0.98433163  1
  O  O23  1  0.09897812  0.09048651  0.51252798  1
  O  O24  1  0.79008810  0.74753603  0.75500282  1
  O  O25  1  0.77998396  0.74754169  0.25219382  1
  O  O26  1  0.45152372  0.41103400  0.25393411  1
  O  O27  1  0.45878750  0.40204943  0.75405400  1
  O  O28  1  0.41429661  0.13399948  0.74594431  1
  O  O29  1  0.41359586  0.13584189  0.24789323  1
  O  O30  1  0.75212883  0.47049747  0.75213875  1
  O  O31  1  0.74083216  0.47218596  0.25387451  1
  O  O32  1  0.80057229  0.10171866  0.00311589  1
  O  O33  1  0.79675684  0.10099841  0.50339886  1
