# generated using pymatgen
data_EuYSi4N7
_symmetry_space_group_name_H-M   'P 1'
_cell_length_a   6.05001711
_cell_length_b   6.05001711
_cell_length_c   9.88980688
_cell_angle_alpha   90.00000000
_cell_angle_beta   90.00000000
_cell_angle_gamma   120.00000004
_symmetry_Int_Tables_number   1
_chemical_formula_structural   EuYSi4N7
_chemical_formula_sum   'Eu2 Y2 Si8 N14'
_cell_volume   313.49574349
_cell_formula_units_Z   2
loop_
 _symmetry_equiv_pos_site_id
 _symmetry_equiv_pos_as_xyz
  1  'x, y, z'
loop_
 _atom_site_type_symbol
 _atom_site_label
 _atom_site_symmetry_multiplicity
 _atom_site_fract_x
 _atom_site_fract_y
 _atom_site_fract_z
 _atom_site_occupancy
  N  N0  1  0.00000000  0.00000000  0.83774852  1
  N  N1  1  0.00000000  0.00000000  0.33774852  1
  N  N2  1  0.84704487  0.69408974  0.08863919  1
  N  N3  1  0.15295513  0.84704487  0.58863919  1
  N  N4  1  0.69408974  0.84704487  0.58863919  1
  N  N5  1  0.30591026  0.15295513  0.08863919  1
  N  N6  1  0.84704487  0.15295513  0.08863919  1
  N  N7  1  0.15295513  0.30591026  0.58863919  1
  N  N8  1  0.48899682  0.51100318  0.81226831  1
  N  N9  1  0.97799364  0.48899682  0.31226831  1
  N  N10  1  0.51100318  0.02200636  0.31226831  1
  N  N11  1  0.48899682  0.97799364  0.81226831  1
  N  N12  1  0.51100318  0.48899682  0.31226831  1
  N  N13  1  0.02200636  0.51100318  0.81226831  1
  Si  Si14  1  0.17365311  0.34730622  0.76113644  1
  Si  Si15  1  0.82634689  0.17365311  0.26113644  1
  Si  Si16  1  0.34730622  0.17365311  0.26113644  1
  Si  Si17  1  0.65269378  0.82634689  0.76113644  1
  Si  Si18  1  0.17365311  0.82634689  0.76113644  1
  Si  Si19  1  0.82634689  0.65269378  0.26113644  1
  Si  Si20  1  0.00000000  0.00000000  0.02821780  1
  Si  Si21  1  0.00000000  0.00000000  0.52821780  1
  Y  Y22  1  0.33333333  0.66666667  0.45244978  1
  Y  Y23  1  0.66666667  0.33333333  0.95244978  1
  Eu  Eu24  1  0.33333333  0.66666667  0.08715205  1
  Eu  Eu25  1  0.66666667  0.33333333  0.58715205  1
