# generated using pymatgen
data_Pr2ReC2
_symmetry_space_group_name_H-M   'P 1'
_cell_length_a   5.41256057
_cell_length_b   6.74291167
_cell_length_c   10.32347075
_cell_angle_alpha   90.00000000
_cell_angle_beta   90.00000000
_cell_angle_gamma   90.00000000
_symmetry_Int_Tables_number   1
_chemical_formula_structural   Pr2ReC2
_chemical_formula_sum   'Pr8 Re4 C8'
_cell_volume   376.76970197
_cell_formula_units_Z   4
loop_
 _symmetry_equiv_pos_site_id
 _symmetry_equiv_pos_as_xyz
  1  'x, y, z'
loop_
 _atom_site_type_symbol
 _atom_site_label
 _atom_site_symmetry_multiplicity
 _atom_site_fract_x
 _atom_site_fract_y
 _atom_site_fract_z
 _atom_site_occupancy
  C  C0  1  0.25000000  0.18920381  0.96530648  1
  C  C1  1  0.25000000  0.03163565  0.25780377  1
  C  C2  1  0.75000000  0.96836435  0.74219623  1
  C  C3  1  0.75000000  0.31079619  0.46530648  1
  C  C4  1  0.25000000  0.53163565  0.24219623  1
  C  C5  1  0.25000000  0.68920381  0.53469352  1
  C  C6  1  0.75000000  0.81079619  0.03469352  1
  C  C7  1  0.75000000  0.46836435  0.75780377  1
  Pr  Pr8  1  0.75000000  0.02534511  0.28606081  1
  Pr  Pr9  1  0.25000000  0.47465489  0.78606081  1
  Pr  Pr10  1  0.75000000  0.19003929  0.94988932  1
  Pr  Pr11  1  0.25000000  0.30996071  0.44988932  1
  Pr  Pr12  1  0.75000000  0.69003929  0.55011068  1
  Pr  Pr13  1  0.25000000  0.80996071  0.05011068  1
  Pr  Pr14  1  0.25000000  0.97465489  0.71393919  1
  Pr  Pr15  1  0.75000000  0.52534511  0.21393919  1
  Re  Re16  1  0.25000000  0.76828762  0.35633447  1
  Re  Re17  1  0.25000000  0.26828762  0.14366553  1
  Re  Re18  1  0.75000000  0.73171238  0.85633447  1
  Re  Re19  1  0.75000000  0.23171238  0.64366553  1
