# generated using pymatgen
data_UP2(PbO5)2
_symmetry_space_group_name_H-M   'P 1'
_cell_length_a   6.72315515
_cell_length_b   6.97257462
_cell_length_c   10.63266022
_cell_angle_alpha   86.21922569
_cell_angle_beta   78.12917976
_cell_angle_gamma   81.47758374
_symmetry_Int_Tables_number   1
_chemical_formula_structural   UP2(PbO5)2
_chemical_formula_sum   'U2 P4 Pb4 O20'
_cell_volume   482.06525193
_cell_formula_units_Z   2
loop_
 _symmetry_equiv_pos_site_id
 _symmetry_equiv_pos_as_xyz
  1  'x, y, z'
loop_
 _atom_site_type_symbol
 _atom_site_label
 _atom_site_symmetry_multiplicity
 _atom_site_fract_x
 _atom_site_fract_y
 _atom_site_fract_z
 _atom_site_occupancy
  O  O0  1  0.84167166  0.90927934  0.42710283  1
  O  O1  1  0.15832834  0.09072066  0.57289717  1
  O  O2  1  0.53721925  0.63607733  0.85146134  1
  O  O3  1  0.46278075  0.36392267  0.14853866  1
  O  O4  1  0.85577188  0.86292365  0.89433355  1
  O  O5  1  0.14422812  0.13707635  0.10566645  1
  O  O6  1  0.79850926  0.50416257  0.05578858  1
  O  O7  1  0.20149074  0.49583743  0.94421142  1
  O  O8  1  0.45463313  0.33814334  0.75548607  1
  O  O9  1  0.54536687  0.66185666  0.24451393  1
  O  O10  1  0.41087233  0.01663978  0.36718453  1
  O  O11  1  0.58912767  0.98336022  0.63281547  1
  O  O12  1  0.59445505  0.66372859  0.52232270  1
  O  O13  1  0.40554495  0.33627141  0.47767730  1
  O  O14  1  0.06977182  0.63531573  0.21217015  1
  O  O15  1  0.93022818  0.36468427  0.78782985  1
  O  O16  1  0.76659572  0.32920345  0.26170935  1
  O  O17  1  0.23340428  0.67079655  0.73829065  1
  O  O18  1  0.11757236  0.29420188  0.37162418  1
  O  O19  1  0.88242764  0.70579812  0.62837582  1
  P  P20  1  0.72299898  0.81604021  0.55161065  1
  P  P21  1  0.27700102  0.18395979  0.44838935  1
  P  P22  1  0.36678335  0.53178558  0.82051677  1
  P  P23  1  0.63321665  0.46821442  0.17948323  1
  Pb  Pb24  1  0.26196302  0.05154990  0.77120118  1
  Pb  Pb25  1  0.73803698  0.94845010  0.22879882  1
  Pb  Pb26  1  0.72280455  0.29759647  0.55073487  1
  Pb  Pb27  1  0.27719545  0.70240353  0.44926513  1
  U  U28  1  0.88545506  0.61600299  0.83982250  1
  U  U29  1  0.11454494  0.38399701  0.16017750  1
