# generated using pymatgen
data_Gd(LuS2)3
_symmetry_space_group_name_H-M   'P 1'
_cell_length_a   3.89906646
_cell_length_b   10.89904566
_cell_length_c   11.14290164
_cell_angle_alpha   108.94323500
_cell_angle_beta   90.00000000
_cell_angle_gamma   90.00000000
_symmetry_Int_Tables_number   1
_chemical_formula_structural   Gd(LuS2)3
_chemical_formula_sum   'Gd2 Lu6 S12'
_cell_volume   447.88383491
_cell_formula_units_Z   2
loop_
 _symmetry_equiv_pos_site_id
 _symmetry_equiv_pos_as_xyz
  1  'x, y, z'
loop_
 _atom_site_type_symbol
 _atom_site_label
 _atom_site_symmetry_multiplicity
 _atom_site_fract_x
 _atom_site_fract_y
 _atom_site_fract_z
 _atom_site_occupancy
  S  S0  1  0.75000000  0.38447822  0.03645939  1
  S  S1  1  0.25000000  0.61552178  0.96354061  1
  S  S2  1  0.75000000  0.02292448  0.88767468  1
  S  S3  1  0.25000000  0.97707552  0.11232532  1
  S  S4  1  0.75000000  0.69528336  0.74921458  1
  S  S5  1  0.25000000  0.30471664  0.25078542  1
  S  S6  1  0.75000000  0.76147899  0.22643340  1
  S  S7  1  0.25000000  0.23852101  0.77356660  1
  S  S8  1  0.25000000  0.41826287  0.59450422  1
  S  S9  1  0.75000000  0.58173713  0.40549578  1
  S  S10  1  0.25000000  0.89542140  0.56043129  1
  S  S11  1  0.75000000  0.10457860  0.43956871  1
  Gd  Gd12  1  0.25000000  0.54691838  0.19368032  1
  Gd  Gd13  1  0.75000000  0.45308162  0.80631968  1
  Lu  Lu14  1  0.75000000  0.06219950  0.66722039  1
  Lu  Lu15  1  0.25000000  0.93780050  0.33277961  1
  Lu  Lu16  1  0.75000000  0.81871302  0.99844432  1
  Lu  Lu17  1  0.25000000  0.18128698  0.00155568  1
  Lu  Lu18  1  0.25000000  0.66065647  0.58563887  1
  Lu  Lu19  1  0.75000000  0.33934353  0.41436113  1
