# generated using pymatgen
data_Th2CoB10
_symmetry_space_group_name_H-M   'P 1'
_cell_length_a   4.17926552
_cell_length_b   5.61755130
_cell_length_c   11.21942008
_cell_angle_alpha   90.00000000
_cell_angle_beta   90.00000000
_cell_angle_gamma   90.00000000
_symmetry_Int_Tables_number   1
_chemical_formula_structural   Th2CoB10
_chemical_formula_sum   'Th4 Co2 B20'
_cell_volume   263.40100054
_cell_formula_units_Z   2
loop_
 _symmetry_equiv_pos_site_id
 _symmetry_equiv_pos_as_xyz
  1  'x, y, z'
loop_
 _atom_site_type_symbol
 _atom_site_label
 _atom_site_symmetry_multiplicity
 _atom_site_fract_x
 _atom_site_fract_y
 _atom_site_fract_z
 _atom_site_occupancy
  B  B0  1  0.00000000  0.12710239  0.54001721  1
  B  B1  1  0.00000000  0.87289761  0.45998279  1
  B  B2  1  0.00000000  0.62710239  0.95998279  1
  B  B3  1  0.00000000  0.37289761  0.04001721  1
  B  B4  1  0.00000000  0.15265248  0.69709130  1
  B  B5  1  0.00000000  0.84734752  0.30290870  1
  B  B6  1  0.29993708  0.20079116  0.11349261  1
  B  B7  1  0.29993708  0.79920884  0.88650739  1
  B  B8  1  0.70006292  0.70079116  0.38650739  1
  B  B9  1  0.70006292  0.29920884  0.61349261  1
  B  B10  1  0.70006292  0.79920884  0.88650739  1
  B  B11  1  0.70006292  0.20079116  0.11349261  1
  B  B12  1  0.29993708  0.29920884  0.61349261  1
  B  B13  1  0.29993708  0.70079116  0.38650739  1
  B  B14  1  0.00000000  0.03473878  0.18721347  1
  B  B15  1  0.00000000  0.96526122  0.81278653  1
  B  B16  1  0.00000000  0.53473878  0.31278653  1
  B  B17  1  0.00000000  0.46526122  0.68721347  1
  B  B18  1  0.00000000  0.34734752  0.19709130  1
  B  B19  1  0.00000000  0.65265248  0.80290870  1
  Co  Co20  1  0.00000000  0.50000000  0.50000000  1
  Co  Co21  1  0.00000000  0.00000000  0.00000000  1
  Th  Th22  1  0.50000000  0.30183699  0.86549022  1
  Th  Th23  1  0.50000000  0.69816301  0.13450978  1
  Th  Th24  1  0.50000000  0.80183699  0.63450978  1
  Th  Th25  1  0.50000000  0.19816301  0.36549022  1
