# generated using pymatgen
data_Sc3P2
_symmetry_space_group_name_H-M   'P 1'
_cell_length_a   3.78360079
_cell_length_b   6.92643603
_cell_length_c   14.43527448
_cell_angle_alpha   90.00000000
_cell_angle_beta   90.00000000
_cell_angle_gamma   90.00000000
_symmetry_Int_Tables_number   1
_chemical_formula_structural   Sc3P2
_chemical_formula_sum   'Sc12 P8'
_cell_volume   378.30334489
_cell_formula_units_Z   4
loop_
 _symmetry_equiv_pos_site_id
 _symmetry_equiv_pos_as_xyz
  1  'x, y, z'
loop_
 _atom_site_type_symbol
 _atom_site_label
 _atom_site_symmetry_multiplicity
 _atom_site_fract_x
 _atom_site_fract_y
 _atom_site_fract_z
 _atom_site_occupancy
  P  P0  1  0.25000000  0.75898385  0.54177757  1
  P  P1  1  0.75000000  0.24101615  0.45822243  1
  P  P2  1  0.25000000  0.25898385  0.95822243  1
  P  P3  1  0.75000000  0.74101615  0.04177757  1
  P  P4  1  0.25000000  0.62811302  0.29534780  1
  P  P5  1  0.75000000  0.37188698  0.70465220  1
  P  P6  1  0.25000000  0.12811302  0.20465220  1
  P  P7  1  0.75000000  0.87188698  0.79534780  1
  Sc  Sc8  1  0.75000000  0.13419613  0.06779714  1
  Sc  Sc9  1  0.25000000  0.86580387  0.93220286  1
  Sc  Sc10  1  0.75000000  0.63419613  0.43220286  1
  Sc  Sc11  1  0.25000000  0.36580387  0.56779714  1
  Sc  Sc12  1  0.25000000  0.66368101  0.72241535  1
  Sc  Sc13  1  0.75000000  0.33631899  0.27758465  1
  Sc  Sc14  1  0.25000000  0.16368101  0.77758465  1
  Sc  Sc15  1  0.75000000  0.83631899  0.22241535  1
  Sc  Sc16  1  0.25000000  0.50767294  0.10420645  1
  Sc  Sc17  1  0.75000000  0.49232706  0.89579355  1
  Sc  Sc18  1  0.25000000  0.00767294  0.39579355  1
  Sc  Sc19  1  0.75000000  0.99232706  0.60420645  1
