# generated using pymatgen
data_LiCo2(BO3)2
_symmetry_space_group_name_H-M   'P 1'
_cell_length_a   5.79542608
_cell_length_b   5.21460002
_cell_length_c   5.19750435
_cell_angle_alpha   58.90847012
_cell_angle_beta   113.79439293
_cell_angle_gamma   89.60739761
_symmetry_Int_Tables_number   1
_chemical_formula_structural   LiCo2(BO3)2
_chemical_formula_sum   'Li1 Co2 B2 O6'
_cell_volume   118.34223529
_cell_formula_units_Z   1
loop_
 _symmetry_equiv_pos_site_id
 _symmetry_equiv_pos_as_xyz
  1  'x, y, z'
loop_
 _atom_site_type_symbol
 _atom_site_label
 _atom_site_symmetry_multiplicity
 _atom_site_fract_x
 _atom_site_fract_y
 _atom_site_fract_z
 _atom_site_occupancy
  Li  Li0  1  0.67801026  0.60722321  0.45689114  1
  Co  Co1  1  0.24988819  0.76064687  0.84608934  1
  Co  Co2  1  0.76567930  0.24366133  0.16113300  1
  B  B3  1  0.24880208  0.09585682  0.16433504  1
  B  B4  1  0.74028466  0.91890531  0.82231106  1
  O  O5  1  0.30350198  0.35577822  0.95602683  1
  O  O6  1  0.16984012  0.08359235  0.38805161  1
  O  O7  1  0.29309214  0.83156970  0.16982967  1
  O  O8  1  0.72708697  0.18876613  0.80141224  1
  O  O9  1  0.82575249  0.87475329  0.62609873  1
  O  O10  1  0.66660581  0.67363576  0.03670634  1
