# generated using pymatgen
data_HgP14Pb
_symmetry_space_group_name_H-M   'P 1'
_cell_length_a   9.90507766
_cell_length_b   11.08175354
_cell_length_c   13.42384475
_cell_angle_alpha   90.00000000
_cell_angle_beta   90.00000000
_cell_angle_gamma   90.00000000
_symmetry_Int_Tables_number   1
_chemical_formula_structural   HgP14Pb
_chemical_formula_sum   'Hg4 P56 Pb4'
_cell_volume   1473.47676826
_cell_formula_units_Z   4
loop_
 _symmetry_equiv_pos_site_id
 _symmetry_equiv_pos_as_xyz
  1  'x, y, z'
loop_
 _atom_site_type_symbol
 _atom_site_label
 _atom_site_symmetry_multiplicity
 _atom_site_fract_x
 _atom_site_fract_y
 _atom_site_fract_z
 _atom_site_occupancy
  P  P0  1  0.92274815  0.67042866  0.82625926  1
  P  P1  1  0.54806576  0.63885754  0.36512637  1
  P  P2  1  0.04806576  0.36114246  0.63487363  1
  P  P3  1  0.45193424  0.13885754  0.13487363  1
  P  P4  1  0.75000000  0.33785869  0.46998985  1
  P  P5  1  0.25000000  0.66214131  0.53001015  1
  P  P6  1  0.25000000  0.83785869  0.03001015  1
  P  P7  1  0.75000000  0.16214131  0.96998985  1
  P  P8  1  0.07655319  0.34567033  0.47296549  1
  P  P9  1  0.57655319  0.65432967  0.52703451  1
  P  P10  1  0.92344681  0.84567033  0.02703451  1
  P  P11  1  0.42344681  0.15432967  0.97296549  1
  P  P12  1  0.92344681  0.65432967  0.52703451  1
  P  P13  1  0.42344681  0.34567033  0.47296549  1
  P  P14  1  0.07655319  0.15432967  0.97296549  1
  P  P15  1  0.57655319  0.84567033  0.02703451  1
  P  P16  1  0.25000000  0.22153443  0.44750639  1
  P  P17  1  0.75000000  0.77846557  0.55249361  1
  P  P18  1  0.75000000  0.72153443  0.05249361  1
  P  P19  1  0.25000000  0.27846557  0.94750639  1
  P  P20  1  0.58314408  0.21071004  0.43798043  1
  P  P21  1  0.08314408  0.78928996  0.56201957  1
  P  P22  1  0.41685592  0.71071004  0.06201957  1
  P  P23  1  0.91685592  0.28928996  0.93798043  1
  P  P24  1  0.41685592  0.78928996  0.56201957  1
  P  P25  1  0.91685592  0.21071004  0.43798043  1
  P  P26  1  0.58314408  0.28928996  0.93798043  1
  P  P27  1  0.08314408  0.71071004  0.06201957  1
  P  P28  1  0.25000000  0.39660593  0.08357109  1
  P  P29  1  0.75000000  0.60339407  0.91642891  1
  P  P30  1  0.75000000  0.89660593  0.41642891  1
  P  P31  1  0.25000000  0.10339407  0.58357109  1
  P  P32  1  0.57855597  0.41378497  0.07540373  1
  P  P33  1  0.07855597  0.58621503  0.92459627  1
  P  P34  1  0.42144403  0.91378497  0.42459627  1
  P  P35  1  0.92144403  0.08621503  0.57540373  1
  P  P36  1  0.42144403  0.58621503  0.92459627  1
  P  P37  1  0.92144403  0.41378497  0.07540373  1
  P  P38  1  0.57855597  0.08621503  0.57540373  1
  P  P39  1  0.07855597  0.91378497  0.42459627  1
  P  P40  1  0.75000000  0.34967772  0.16811144  1
  P  P41  1  0.25000000  0.65032228  0.83188856  1
  P  P42  1  0.25000000  0.84967772  0.33188856  1
  P  P43  1  0.75000000  0.15032228  0.66811144  1
  P  P44  1  0.07725185  0.32957134  0.17374074  1
  P  P45  1  0.57725185  0.67042866  0.82625926  1
  P  P46  1  0.92274815  0.82957134  0.32625926  1
  P  P47  1  0.42274815  0.17042866  0.67374074  1
  P  P48  1  0.45193424  0.36114246  0.63487363  1
  P  P49  1  0.42274815  0.32957134  0.17374074  1
  P  P50  1  0.07725185  0.17042866  0.67374074  1
  P  P51  1  0.57725185  0.82957134  0.32625926  1
  P  P52  1  0.04806576  0.13885754  0.13487363  1
  P  P53  1  0.54806576  0.86114246  0.86512637  1
  P  P54  1  0.95193424  0.63885754  0.36512637  1
  P  P55  1  0.95193424  0.86114246  0.86512637  1
  Hg  Hg56  1  0.25000000  0.00111302  0.18619001  1
  Hg  Hg57  1  0.25000000  0.49888698  0.68619001  1
  Hg  Hg58  1  0.75000000  0.50111302  0.31380999  1
  Hg  Hg59  1  0.75000000  0.99888698  0.81380999  1
  Pb  Pb60  1  0.75000000  0.09453319  0.17093067  1
  Pb  Pb61  1  0.25000000  0.90546681  0.82906933  1
  Pb  Pb62  1  0.25000000  0.59453319  0.32906933  1
  Pb  Pb63  1  0.75000000  0.40546681  0.67093067  1
