# generated using pymatgen
data_NaP(HO2)2
_symmetry_space_group_name_H-M   'P 1'
_cell_length_a   6.90121869
_cell_length_b   7.54728939
_cell_length_c   13.50379588
_cell_angle_alpha   90.00000000
_cell_angle_beta   90.00000000
_cell_angle_gamma   93.69905840
_symmetry_Int_Tables_number   1
_chemical_formula_structural   NaP(HO2)2
_chemical_formula_sum   'Na8 P8 H16 O32'
_cell_volume   701.88657981
_cell_formula_units_Z   8
loop_
 _symmetry_equiv_pos_site_id
 _symmetry_equiv_pos_as_xyz
  1  'x, y, z'
loop_
 _atom_site_type_symbol
 _atom_site_label
 _atom_site_symmetry_multiplicity
 _atom_site_fract_x
 _atom_site_fract_y
 _atom_site_fract_z
 _atom_site_occupancy
  H  H0  1  0.99599734  0.15193656  0.96804498  1
  H  H1  1  0.00400266  0.34806344  0.46804498  1
  H  H2  1  0.00400266  0.84806344  0.03195502  1
  H  H3  1  0.99599734  0.65193656  0.53195502  1
  H  H4  1  0.94245969  0.84169347  0.77775060  1
  H  H5  1  0.05754031  0.65830653  0.27775060  1
  H  H6  1  0.05754031  0.15830653  0.22224940  1
  H  H7  1  0.94245969  0.34169347  0.72224940  1
  H  H8  1  0.51115236  0.87396361  0.90316895  1
  H  H9  1  0.48884764  0.62603639  0.40316895  1
  H  H10  1  0.48884764  0.12603639  0.09683105  1
  H  H11  1  0.51115236  0.37396361  0.59683105  1
  H  H12  1  0.44680271  0.51847091  0.76206667  1
  H  H13  1  0.55319729  0.98152909  0.26206667  1
  H  H14  1  0.55319729  0.48152909  0.23793333  1
  H  H15  1  0.44680271  0.01847091  0.73793333  1
  O  O16  1  0.47674288  0.51731875  0.83681510  1
  O  O17  1  0.24751471  0.27017165  0.22513259  1
  O  O18  1  0.24751471  0.77017165  0.27486741  1
  O  O19  1  0.75248529  0.72982835  0.77486741  1
  O  O20  1  0.47674288  0.01731875  0.66318490  1
  O  O21  1  0.52325712  0.48268125  0.16318490  1
  O  O22  1  0.52325712  0.98268125  0.33681510  1
  O  O23  1  0.75248529  0.22982835  0.72513259  1
  O  O24  1  0.79497600  0.02522777  0.57176959  1
  O  O25  1  0.20502400  0.47477223  0.07176959  1
  O  O26  1  0.20502400  0.97477223  0.42823041  1
  O  O27  1  0.79497600  0.52522777  0.92823041  1
  O  O28  1  0.58657773  0.28466630  0.55901527  1
  O  O29  1  0.41342227  0.21533370  0.05901527  1
  O  O30  1  0.41342227  0.71533370  0.44098473  1
  O  O31  1  0.58657773  0.78466630  0.94098473  1
  O  O32  1  0.39077295  0.02182511  0.84751327  1
  O  O33  1  0.92440643  0.08455268  0.22720205  1
  O  O34  1  0.92440643  0.58455268  0.27279795  1
  O  O35  1  0.07559357  0.91544732  0.77279795  1
  O  O36  1  0.14610814  0.33849112  0.54664757  1
  O  O37  1  0.85389186  0.16150888  0.04664757  1
  O  O38  1  0.85389186  0.66150888  0.45335243  1
  O  O39  1  0.14610814  0.83849112  0.95335243  1
  O  O40  1  0.08365053  0.65843953  0.59551926  1
  O  O41  1  0.91634947  0.84156047  0.09551926  1
  O  O42  1  0.91634947  0.34156047  0.40448074  1
  O  O43  1  0.08365053  0.15843953  0.90448074  1
  O  O44  1  0.39077295  0.52182511  0.65248673  1
  O  O45  1  0.60922705  0.97817489  0.15248673  1
  O  O46  1  0.60922705  0.47817489  0.34751327  1
  O  O47  1  0.07559357  0.41544732  0.72720205  1
  Na  Na48  1  0.13687030  0.99619717  0.59998809  1
  Na  Na49  1  0.86312970  0.50380283  0.09998809  1
  Na  Na50  1  0.86312970  0.00380283  0.40001191  1
  Na  Na51  1  0.13687030  0.49619717  0.90001191  1
  Na  Na52  1  0.63242902  0.73940553  0.59996094  1
  Na  Na53  1  0.36757098  0.76059447  0.09996094  1
  Na  Na54  1  0.36757098  0.26059447  0.40003906  1
  Na  Na55  1  0.63242902  0.23940553  0.90003906  1
  P  P56  1  0.66765164  0.14006344  0.63252325  1
  P  P57  1  0.33234836  0.35993656  0.13252325  1
  P  P58  1  0.33234836  0.85993656  0.36747675  1
  P  P59  1  0.66765164  0.64006344  0.86747675  1
  P  P60  1  0.17521561  0.48064109  0.62694217  1
  P  P61  1  0.82478439  0.01935891  0.12694217  1
  P  P62  1  0.82478439  0.51935891  0.37305783  1
  P  P63  1  0.17521561  0.98064109  0.87305783  1
