# generated using pymatgen
data_NdH2ClO2
_symmetry_space_group_name_H-M   'P 1'
_cell_length_a   3.89593148
_cell_length_b   6.30131379
_cell_length_c   6.88595330
_cell_angle_alpha   112.56324311
_cell_angle_beta   90.00000000
_cell_angle_gamma   90.00000000
_symmetry_Int_Tables_number   1
_chemical_formula_structural   NdH2ClO2
_chemical_formula_sum   'Nd2 H4 Cl2 O4'
_cell_volume   156.10721017
_cell_formula_units_Z   2
loop_
 _symmetry_equiv_pos_site_id
 _symmetry_equiv_pos_as_xyz
  1  'x, y, z'
loop_
 _atom_site_type_symbol
 _atom_site_label
 _atom_site_symmetry_multiplicity
 _atom_site_fract_x
 _atom_site_fract_y
 _atom_site_fract_z
 _atom_site_occupancy
  H  H0  1  0.75000000  0.69228267  0.30473905  1
  H  H1  1  0.25000000  0.30771733  0.69526095  1
  H  H2  1  0.75000000  0.11688432  0.78353133  1
  H  H3  1  0.25000000  0.88311568  0.21646867  1
  O  O4  1  0.25000000  0.89935434  0.08108219  1
  O  O5  1  0.75000000  0.10064566  0.91891781  1
  O  O6  1  0.25000000  0.42885951  0.83607579  1
  O  O7  1  0.75000000  0.57114049  0.16392421  1
  Cl  Cl8  1  0.75000000  0.24960977  0.44403486  1
  Cl  Cl9  1  0.25000000  0.75039023  0.55596514  1
  Nd  Nd10  1  0.25000000  0.30888626  0.13291568  1
  Nd  Nd11  1  0.75000000  0.69111374  0.86708432  1
