# generated using pymatgen
data_Li3V2(O2F)2
_symmetry_space_group_name_H-M   'P 1'
_cell_length_a   5.99744953
_cell_length_b   5.19394938
_cell_length_c   14.80286169
_cell_angle_alpha   89.94986335
_cell_angle_beta   90.00000000
_cell_angle_gamma   90.00000000
_symmetry_Int_Tables_number   1
_chemical_formula_structural   Li3V2(O2F)2
_chemical_formula_sum   'Li12 V8 O16 F8'
_cell_volume   461.11561534
_cell_formula_units_Z   4
loop_
 _symmetry_equiv_pos_site_id
 _symmetry_equiv_pos_as_xyz
  1  'x, y, z'
loop_
 _atom_site_type_symbol
 _atom_site_label
 _atom_site_symmetry_multiplicity
 _atom_site_fract_x
 _atom_site_fract_y
 _atom_site_fract_z
 _atom_site_occupancy
  Li  Li0  1  0.02259073  0.33333300  0.16666700  1
  Li  Li1  1  0.99835780  0.98896447  0.03801417  1
  Li  Li2  1  0.99835780  0.67770153  0.29531883  1
  Li  Li3  1  0.24155867  0.83333300  0.66666700  1
  Li  Li4  1  0.25126343  0.83333300  0.16666700  1
  Li  Li5  1  0.47813061  0.33333300  0.16666700  1
  Li  Li6  1  0.50162443  0.33333300  0.66666700  1
  Li  Li7  1  0.50383667  0.98989669  0.03651948  1
  Li  Li8  1  0.50383667  0.67677031  0.29681452  1
  Li  Li9  1  0.75699868  0.83333300  0.66666700  1
  Li  Li10  1  0.74965616  0.52599789  0.03855900  1
  Li  Li11  1  0.74965616  0.14066911  0.29477500  1
  V  V12  1  0.99857599  0.00160420  0.49999359  1
  V  V13  1  0.99857599  0.66506180  0.83334041  1
  V  V14  1  0.25126291  0.50162088  0.50338096  1
  V  V15  1  0.25126291  0.16504612  0.82995204  1
  V  V16  1  0.49871800  0.00067511  0.49439141  1
  V  V17  1  0.49871800  0.66599189  0.83894259  1
  V  V18  1  0.75139278  0.49329919  0.50172555  1
  V  V19  1  0.75139278  0.17336681  0.83160845  1
  O  O20  1  0.98452825  0.34917062  0.43731285  1
  O  O21  1  0.98452825  0.31749638  0.89602115  1
  O  O22  1  0.99613823  0.98792573  0.75846025  1
  O  O23  1  0.99613823  0.67874027  0.57487275  1
  O  O24  1  0.25314914  0.83146921  0.43417891  1
  O  O25  1  0.25314914  0.83519779  0.89915409  1
  O  O26  1  0.26859826  0.51478669  0.76105528  1
  O  O27  1  0.26859826  0.15188031  0.57227772  1
  O  O28  1  0.50813948  0.33452556  0.43443732  1
  O  O29  1  0.50813948  0.33214144  0.89889668  1
  O  O30  1  0.51215592  0.00472122  0.75721783  1
  O  O31  1  0.51215592  0.66194578  0.57611517  1
  O  O32  1  0.73700554  0.83140401  0.43242948  1
  O  O33  1  0.73700554  0.83526299  0.90090352  1
  O  O34  1  0.73450154  0.50403181  0.76112482  1
  O  O35  1  0.73450154  0.16263519  0.57220918  1
  F  F36  1  0.00471896  0.00482340  0.24840642  1
  F  F37  1  0.00471896  0.66184360  0.08492658  1
  F  F38  1  0.25064435  0.52367676  0.24324116  1
  F  F39  1  0.25064435  0.14298924  0.09009184  1
  F  F40  1  0.49579831  0.00423505  0.24859556  1
  F  F41  1  0.49579831  0.66243195  0.08473744  1
  F  F42  1  0.75173793  0.47983177  0.25735018  1
  F  F43  1  0.75173793  0.18683523  0.07598282  1
