# generated using pymatgen
data_Rb2ZnH12(SO7)2
_symmetry_space_group_name_H-M   'P 1'
_cell_length_a   6.32416222
_cell_length_b   9.22651098
_cell_length_c   12.61509431
_cell_angle_alpha   90.00000000
_cell_angle_beta   90.00000000
_cell_angle_gamma   105.50865352
_symmetry_Int_Tables_number   1
_chemical_formula_structural   Rb2ZnH12(SO7)2
_chemical_formula_sum   'Rb4 Zn2 H24 S4 O28'
_cell_volume   709.28916693
_cell_formula_units_Z   2
loop_
 _symmetry_equiv_pos_site_id
 _symmetry_equiv_pos_as_xyz
  1  'x, y, z'
loop_
 _atom_site_type_symbol
 _atom_site_label
 _atom_site_symmetry_multiplicity
 _atom_site_fract_x
 _atom_site_fract_y
 _atom_site_fract_z
 _atom_site_occupancy
  H  H0  1  0.32017900  0.52720197  0.64282626  1
  H  H1  1  0.67982100  0.97279803  0.14282626  1
  H  H2  1  0.67982100  0.47279803  0.35717374  1
  H  H3  1  0.32017900  0.02720197  0.85717374  1
  H  H4  1  0.33631762  0.40059550  0.56109973  1
  H  H5  1  0.66368238  0.09940450  0.06109973  1
  H  H6  1  0.92761668  0.22363416  0.40074454  1
  H  H7  1  0.07238332  0.27636584  0.90074454  1
  H  H8  1  0.07238332  0.77636584  0.59925546  1
  H  H9  1  0.92761668  0.72363416  0.09925546  1
  H  H10  1  0.08720017  0.74333458  0.37124363  1
  H  H11  1  0.91279983  0.75666542  0.87124363  1
  H  H12  1  0.91279983  0.25666542  0.62875637  1
  H  H13  1  0.08720017  0.24333458  0.12875637  1
  H  H14  1  0.31973990  0.71496228  0.40444104  1
  H  H15  1  0.68026010  0.78503772  0.90444104  1
  H  H16  1  0.68026010  0.28503772  0.59555896  1
  H  H17  1  0.31973990  0.21496228  0.09555896  1
  H  H18  1  0.00702494  0.14904668  0.81306148  1
  H  H19  1  0.99297506  0.35095332  0.31306148  1
  H  H20  1  0.33631762  0.90059550  0.93890027  1
  H  H21  1  0.66368238  0.59940450  0.43890027  1
  H  H22  1  0.00702494  0.64904668  0.68693852  1
  H  H23  1  0.99297506  0.85095332  0.18693852  1
  O  O24  1  0.83524006  0.33505944  0.61482253  1
  O  O25  1  0.83524006  0.83505944  0.88517747  1
  O  O26  1  0.02568045  0.82617100  0.11297581  1
  O  O27  1  0.97431955  0.67382900  0.61297581  1
  O  O28  1  0.97431955  0.17382900  0.88702419  1
  O  O29  1  0.02568045  0.32617100  0.38702419  1
  O  O30  1  0.29820550  0.99809276  0.93344783  1
  O  O31  1  0.16475994  0.16494056  0.11482253  1
  O  O32  1  0.70179450  0.00190724  0.06655217  1
  O  O33  1  0.29820550  0.49809276  0.56655217  1
  O  O34  1  0.94409723  0.87448910  0.32237125  1
  O  O35  1  0.05590277  0.62551090  0.82237125  1
  O  O36  1  0.05590277  0.12551090  0.67762875  1
  O  O37  1  0.94409723  0.37448910  0.17762875  1
  O  O38  1  0.60796215  0.77360302  0.42619526  1
  O  O39  1  0.39203785  0.72639698  0.92619526  1
  O  O40  1  0.39203785  0.22639698  0.57380474  1
  O  O41  1  0.60796215  0.27360302  0.07380474  1
  O  O42  1  0.77503529  0.04264240  0.42226076  1
  O  O43  1  0.22496471  0.45735760  0.92226076  1
  O  O44  1  0.22496471  0.95735760  0.57773924  1
  O  O45  1  0.77503529  0.54264240  0.07773924  1
  O  O46  1  0.70179450  0.50190724  0.43344783  1
  O  O47  1  0.40645495  0.58715384  0.76435562  1
  O  O48  1  0.40645495  0.08715384  0.73564438  1
  O  O49  1  0.59354505  0.41284616  0.23564438  1
  O  O50  1  0.16475994  0.66494056  0.38517747  1
  O  O51  1  0.59354505  0.91284616  0.26435562  1
  S  S52  1  0.26800410  0.59782604  0.85851846  1
  S  S53  1  0.73199590  0.90217396  0.35851846  1
  S  S54  1  0.73199590  0.40217396  0.14148154  1
  S  S55  1  0.26800410  0.09782604  0.64148154  1
  Zn  Zn56  1  0.00000000  0.50000000  0.50000000  1
  Zn  Zn57  1  0.00000000  0.00000000  0.00000000  1
  Rb  Rb58  1  0.34798772  0.13065774  0.35160581  1
  Rb  Rb59  1  0.65201228  0.36934226  0.85160581  1
  Rb  Rb60  1  0.65201228  0.86934226  0.64839419  1
  Rb  Rb61  1  0.34798772  0.63065774  0.14839419  1
