# generated using pymatgen
data_Ca2HN
_symmetry_space_group_name_H-M   'P 1'
_cell_length_a   7.15555092
_cell_length_b   7.15555092
_cell_length_c   7.15555091
_cell_angle_alpha   59.99999999
_cell_angle_beta   59.99999998
_cell_angle_gamma   60.00000002
_symmetry_Int_Tables_number   1
_chemical_formula_structural   Ca2HN
_chemical_formula_sum   'Ca8 H4 N4'
_cell_volume   259.06827351
_cell_formula_units_Z   4
loop_
 _symmetry_equiv_pos_site_id
 _symmetry_equiv_pos_as_xyz
  1  'x, y, z'
loop_
 _atom_site_type_symbol
 _atom_site_label
 _atom_site_symmetry_multiplicity
 _atom_site_fract_x
 _atom_site_fract_y
 _atom_site_fract_z
 _atom_site_occupancy
  H  H0  1  0.00000000  0.50000000  0.00000000  1
  H  H1  1  0.50000000  0.00000000  0.00000000  1
  H  H2  1  0.00000000  0.00000000  0.50000000  1
  H  H3  1  0.00000000  0.00000000  0.00000000  1
  N  N4  1  0.50000000  0.00000000  0.50000000  1
  N  N5  1  0.00000000  0.50000000  0.50000000  1
  N  N6  1  0.50000000  0.50000000  0.00000000  1
  N  N7  1  0.50000000  0.50000000  0.50000000  1
  Ca  Ca8  1  0.73799492  0.73799492  0.73799492  1
  Ca  Ca9  1  0.26200508  0.26200508  0.71398475  1
  Ca  Ca10  1  0.26200508  0.71398475  0.26200508  1
  Ca  Ca11  1  0.71398475  0.26200508  0.26200508  1
  Ca  Ca12  1  0.73799492  0.28601525  0.73799492  1
  Ca  Ca13  1  0.28601525  0.73799492  0.73799492  1
  Ca  Ca14  1  0.73799492  0.73799492  0.28601525  1
  Ca  Ca15  1  0.26200508  0.26200508  0.26200508  1
