# generated using pymatgen
data_CsHSeO4
_symmetry_space_group_name_H-M   'P 1'
_cell_length_a   7.96398037
_cell_length_b   8.15634815
_cell_length_c   8.68615930
_cell_angle_alpha   90.00000000
_cell_angle_beta   90.00000000
_cell_angle_gamma   110.48395815
_symmetry_Int_Tables_number   1
_chemical_formula_structural   CsHSeO4
_chemical_formula_sum   'Cs4 H4 Se4 O16'
_cell_volume   528.55087392
_cell_formula_units_Z   4
loop_
 _symmetry_equiv_pos_site_id
 _symmetry_equiv_pos_as_xyz
  1  'x, y, z'
loop_
 _atom_site_type_symbol
 _atom_site_label
 _atom_site_symmetry_multiplicity
 _atom_site_fract_x
 _atom_site_fract_y
 _atom_site_fract_z
 _atom_site_occupancy
  H  H0  1  0.96158930  0.88963507  0.70757701  1
  H  H1  1  0.53841070  0.11036493  0.20757701  1
  H  H2  1  0.03841070  0.11036493  0.29242299  1
  H  H3  1  0.46158930  0.88963507  0.79242299  1
  O  O4  1  0.89301424  0.93482851  0.78794452  1
  O  O5  1  0.60698576  0.06517149  0.28794452  1
  O  O6  1  0.10698576  0.06517149  0.21205548  1
  O  O7  1  0.39301424  0.93482851  0.71205548  1
  O  O8  1  0.07647667  0.85217019  0.57240156  1
  O  O9  1  0.42352333  0.14782981  0.07240156  1
  O  O10  1  0.92352333  0.14782981  0.42759844  1
  O  O11  1  0.57647667  0.85217019  0.92759844  1
  O  O12  1  0.30468844  0.68433259  0.47949702  1
  O  O13  1  0.19531156  0.31566741  0.97949702  1
  O  O14  1  0.69531156  0.31566741  0.52050298  1
  O  O15  1  0.80468844  0.68433259  0.02050298  1
  O  O16  1  0.14156649  0.60707491  0.76362689  1
  O  O17  1  0.35843351  0.39292509  0.26362689  1
  O  O18  1  0.85843351  0.39292509  0.23637311  1
  O  O19  1  0.64156649  0.60707491  0.73637311  1
  Se  Se20  1  0.72067111  0.75580953  0.87237673  1
  Se  Se21  1  0.77932889  0.24419047  0.37237673  1
  Se  Se22  1  0.27932889  0.24419047  0.12762327  1
  Se  Se23  1  0.22067111  0.75580953  0.62762327  1
  Cs  Cs24  1  0.70625870  0.70607582  0.37483595  1
  Cs  Cs25  1  0.79374130  0.29392418  0.87483595  1
  Cs  Cs26  1  0.29374130  0.29392418  0.62516405  1
  Cs  Cs27  1  0.20625870  0.70607582  0.12516405  1
