# generated using pymatgen
data_Na5ScH4(C2O7)2
_symmetry_space_group_name_H-M   'P 1'
_cell_length_a   7.56586172
_cell_length_b   7.56586172
_cell_length_c   11.63055440
_cell_angle_alpha   90.00000000
_cell_angle_beta   90.00000000
_cell_angle_gamma   90.00000000
_symmetry_Int_Tables_number   1
_chemical_formula_structural   Na5ScH4(C2O7)2
_chemical_formula_sum   'Na10 Sc2 H8 C8 O28'
_cell_volume   665.75926039
_cell_formula_units_Z   2
loop_
 _symmetry_equiv_pos_site_id
 _symmetry_equiv_pos_as_xyz
  1  'x, y, z'
loop_
 _atom_site_type_symbol
 _atom_site_label
 _atom_site_symmetry_multiplicity
 _atom_site_fract_x
 _atom_site_fract_y
 _atom_site_fract_z
 _atom_site_occupancy
  H  H0  1  0.91465613  0.56002109  0.61534251  1
  H  H1  1  0.08534387  0.43997891  0.61534251  1
  H  H2  1  0.93997891  0.58534387  0.11534251  1
  H  H3  1  0.43997891  0.91465613  0.38465749  1
  H  H4  1  0.56002109  0.08534387  0.38465749  1
  H  H5  1  0.58534387  0.06002109  0.88465749  1
  H  H6  1  0.41465613  0.93997891  0.88465749  1
  H  H7  1  0.06002109  0.41465613  0.11534251  1
  C  C8  1  0.82333984  0.71967510  0.92291688  1
  C  C9  1  0.17666016  0.28032490  0.92291688  1
  C  C10  1  0.78032490  0.67666016  0.42291688  1
  C  C11  1  0.28032490  0.82333984  0.07708312  1
  C  C12  1  0.32333984  0.78032490  0.57708312  1
  C  C13  1  0.21967510  0.32333984  0.42291688  1
  C  C14  1  0.71967510  0.17666016  0.07708312  1
  C  C15  1  0.67666016  0.21967510  0.57708312  1
  O  O16  1  0.65790394  0.25285043  0.46617522  1
  O  O17  1  0.84209606  0.75285043  0.03382478  1
  O  O18  1  0.25285043  0.34209606  0.53382478  1
  O  O19  1  0.74714957  0.65790394  0.53382478  1
  O  O20  1  0.33080786  0.40689076  0.35521851  1
  O  O21  1  0.34209606  0.74714957  0.46617522  1
  O  O22  1  0.59310924  0.33080786  0.64478149  1
  O  O23  1  0.83080786  0.09310924  0.14478149  1
  O  O24  1  0.16919214  0.90689076  0.14478149  1
  O  O25  1  0.66919214  0.59310924  0.35521851  1
  O  O26  1  0.09310924  0.16919214  0.85521851  1
  O  O27  1  0.90689076  0.83080786  0.85521851  1
  O  O28  1  0.09298383  0.23128804  0.38394272  1
  O  O29  1  0.23128804  0.90701617  0.61605728  1
  O  O30  1  0.76871196  0.09298383  0.61605728  1
  O  O31  1  0.59298383  0.26871196  0.11605728  1
  O  O32  1  0.40701617  0.73128804  0.11605728  1
  O  O33  1  0.90701617  0.76871196  0.38394272  1
  O  O34  1  0.26871196  0.40701617  0.88394272  1
  O  O35  1  0.73128804  0.59298383  0.88394272  1
  O  O36  1  0.00000000  0.50000000  0.16724771  1
  O  O37  1  0.50000000  0.00000000  0.83275229  1
  O  O38  1  0.50000000  0.00000000  0.33275229  1
  O  O39  1  0.00000000  0.50000000  0.66724771  1
  O  O40  1  0.24714957  0.84209606  0.96617522  1
  O  O41  1  0.15790394  0.24714957  0.03382478  1
  O  O42  1  0.40689076  0.66919214  0.64478149  1
  O  O43  1  0.75285043  0.15790394  0.96617522  1
  Na  Na44  1  0.67994744  0.81921464  0.70903719  1
  Na  Na45  1  0.32005256  0.18078536  0.70903719  1
  Na  Na46  1  0.68078536  0.82005256  0.20903719  1
  Na  Na47  1  0.18078536  0.67994744  0.29096281  1
  Na  Na48  1  0.81921464  0.32005256  0.29096281  1
  Na  Na49  1  0.82005256  0.31921464  0.79096281  1
  Na  Na50  1  0.17994744  0.68078536  0.79096281  1
  Na  Na51  1  0.31921464  0.17994744  0.20903719  1
  Na  Na52  1  0.00000000  0.00000000  0.50000000  1
  Na  Na53  1  0.50000000  0.50000000  0.00000000  1
  Sc  Sc54  1  0.50000000  0.50000000  0.50000000  1
  Sc  Sc55  1  0.00000000  0.00000000  0.00000000  1
