# generated using pymatgen
data_PH8N2O3F
_symmetry_space_group_name_H-M   'P 1'
_cell_length_a   6.07916654
_cell_length_b   8.05625285
_cell_length_c   11.45135919
_cell_angle_alpha   90.00000000
_cell_angle_beta   90.00000000
_cell_angle_gamma   90.00000000
_symmetry_Int_Tables_number   1
_chemical_formula_structural   PH8N2O3F
_chemical_formula_sum   'P4 H32 N8 O12 F4'
_cell_volume   560.83378338
_cell_formula_units_Z   4
loop_
 _symmetry_equiv_pos_site_id
 _symmetry_equiv_pos_as_xyz
  1  'x, y, z'
loop_
 _atom_site_type_symbol
 _atom_site_label
 _atom_site_symmetry_multiplicity
 _atom_site_fract_x
 _atom_site_fract_y
 _atom_site_fract_z
 _atom_site_occupancy
  H  H0  1  0.11204187  0.39712822  0.71515108  1
  H  H1  1  0.61204187  0.60287178  0.28484892  1
  H  H2  1  0.61204187  0.10287178  0.21515108  1
  H  H3  1  0.11204187  0.89712822  0.78484892  1
  H  H4  1  0.28590322  0.33583191  0.60894241  1
  H  H5  1  0.78590322  0.66416809  0.39105759  1
  H  H6  1  0.78590322  0.16416809  0.10894241  1
  H  H7  1  0.28590322  0.83583191  0.89105759  1
  H  H8  1  0.33163848  0.52222646  0.67539757  1
  H  H9  1  0.83163848  0.47777354  0.32460243  1
  H  H10  1  0.83163848  0.97777354  0.17539757  1
  H  H11  1  0.33163848  0.02222646  0.82460243  1
  H  H12  1  0.37040246  0.33939709  0.75004887  1
  H  H13  1  0.87040246  0.66060291  0.24995113  1
  H  H14  1  0.28276153  0.48896476  0.02946427  1
  H  H15  1  0.87040246  0.16060291  0.25004887  1
  H  H16  1  0.30861034  0.32605300  0.12417508  1
  H  H17  1  0.80861034  0.67394700  0.87582492  1
  H  H18  1  0.80861034  0.17394700  0.62417508  1
  H  H19  1  0.30861034  0.82605300  0.37582492  1
  H  H20  1  0.36387173  0.30010396  0.97684538  1
  H  H21  1  0.86387173  0.69989604  0.02315462  1
  H  H22  1  0.86387173  0.19989604  0.47684538  1
  H  H23  1  0.36387173  0.80010396  0.52315462  1
  H  H24  1  0.10146174  0.32766986  0.02068541  1
  H  H25  1  0.60146174  0.67233014  0.97931459  1
  H  H26  1  0.60146174  0.17233014  0.52068541  1
  H  H27  1  0.10146174  0.82766986  0.47931459  1
  H  H28  1  0.28276153  0.98896476  0.47053573  1
  H  H29  1  0.78276153  0.01103524  0.52946427  1
  H  H30  1  0.78276153  0.51103524  0.97053573  1
  H  H31  1  0.37040246  0.83939709  0.74995113  1
  N  N32  1  0.76472132  0.13954356  0.53847292  1
  N  N33  1  0.76472132  0.63954356  0.96152708  1
  N  N34  1  0.26472132  0.36045644  0.03847292  1
  N  N35  1  0.27367803  0.90180380  0.81233995  1
  N  N36  1  0.77367803  0.09819620  0.18766005  1
  N  N37  1  0.77367803  0.59819620  0.31233995  1
  N  N38  1  0.27367803  0.40180380  0.68766005  1
  N  N39  1  0.26472132  0.86045644  0.46152708  1
  O  O40  1  0.82178453  0.28965111  0.98262971  1
  O  O41  1  0.32178453  0.21034889  0.48262971  1
  O  O42  1  0.82178453  0.78965111  0.51737029  1
  O  O43  1  0.32178453  0.71034889  0.01737029  1
  O  O44  1  0.99857429  0.78492500  0.14924359  1
  O  O45  1  0.49857429  0.21507500  0.85075641  1
  O  O46  1  0.89334071  0.71511297  0.73314287  1
  O  O47  1  0.49857429  0.71507500  0.64924359  1
  O  O48  1  0.99857429  0.28492500  0.35075641  1
  O  O49  1  0.89334071  0.21511297  0.76685713  1
  O  O50  1  0.39334071  0.78488703  0.23314287  1
  O  O51  1  0.39334071  0.28488703  0.26685713  1
  F  F52  1  0.26922771  0.49776067  0.41158905  1
  F  F53  1  0.76922771  0.00223933  0.91158905  1
  F  F54  1  0.26922771  0.99776067  0.08841095  1
  F  F55  1  0.76922771  0.50223933  0.58841095  1
  P  P56  1  0.24668202  0.80443257  0.12746974  1
  P  P57  1  0.74668202  0.19556743  0.87253026  1
  P  P58  1  0.74668202  0.69556743  0.62746974  1
  P  P59  1  0.24668202  0.30443257  0.37253026  1
