# generated using pymatgen
data_NaH3O2
_symmetry_space_group_name_H-M   'P 1'
_cell_length_a   6.21134009
_cell_length_b   6.16382540
_cell_length_c   11.50806701
_cell_angle_alpha   90.00000000
_cell_angle_beta   90.00000000
_cell_angle_gamma   90.00000000
_symmetry_Int_Tables_number   1
_chemical_formula_structural   NaH3O2
_chemical_formula_sum   'Na8 H24 O16'
_cell_volume   440.59343232
_cell_formula_units_Z   8
loop_
 _symmetry_equiv_pos_site_id
 _symmetry_equiv_pos_as_xyz
  1  'x, y, z'
loop_
 _atom_site_type_symbol
 _atom_site_label
 _atom_site_symmetry_multiplicity
 _atom_site_fract_x
 _atom_site_fract_y
 _atom_site_fract_z
 _atom_site_occupancy
  H  H0  1  0.62458858  0.06196305  0.70891567  1
  H  H1  1  0.12458858  0.93803695  0.79108433  1
  H  H2  1  0.87541142  0.56196305  0.29108433  1
  H  H3  1  0.37541142  0.43803695  0.20891567  1
  H  H4  1  0.37541142  0.93803695  0.29108433  1
  H  H5  1  0.87541142  0.06196305  0.20891567  1
  H  H6  1  0.12458858  0.43803695  0.70891567  1
  H  H7  1  0.62458858  0.56196305  0.79108433  1
  H  H8  1  0.07067022  0.22151107  0.86478071  1
  H  H9  1  0.57067022  0.77848893  0.63521929  1
  H  H10  1  0.42932978  0.72151107  0.13521929  1
  H  H11  1  0.92932978  0.27848893  0.36478071  1
  H  H12  1  0.92932978  0.77848893  0.13521929  1
  H  H13  1  0.42932978  0.22151107  0.36478071  1
  H  H14  1  0.57067022  0.27848893  0.86478071  1
  H  H15  1  0.07067022  0.72151107  0.63521929  1
  H  H16  1  0.89718730  0.92996796  0.63320344  1
  H  H17  1  0.39718730  0.07003204  0.86679656  1
  H  H18  1  0.60281270  0.42996796  0.36679656  1
  H  H19  1  0.89718730  0.42996796  0.86679656  1
  H  H20  1  0.10281270  0.07003204  0.36679656  1
  H  H21  1  0.60281270  0.92996796  0.13320344  1
  H  H22  1  0.39718730  0.57003204  0.63320344  1
  H  H23  1  0.10281270  0.57003204  0.13320344  1
  O  O24  1  0.94527784  0.61382022  0.12937255  1
  O  O25  1  0.64709509  0.52948367  0.87410128  1
  O  O26  1  0.35290491  0.97051633  0.37410128  1
  O  O27  1  0.85290491  0.02948367  0.12589872  1
  O  O28  1  0.85290491  0.52948367  0.37410128  1
  O  O29  1  0.35290491  0.47051633  0.12589872  1
  O  O30  1  0.64709509  0.02948367  0.62589872  1
  O  O31  1  0.14709509  0.97051633  0.87410128  1
  O  O32  1  0.05472216  0.38617978  0.87062745  1
  O  O33  1  0.55472216  0.61382022  0.62937255  1
  O  O34  1  0.44527784  0.88617978  0.12937255  1
  O  O35  1  0.94527784  0.11382022  0.37062745  1
  O  O36  1  0.05472216  0.88617978  0.62937255  1
  O  O37  1  0.44527784  0.38617978  0.37062745  1
  O  O38  1  0.55472216  0.11382022  0.87062745  1
  O  O39  1  0.14709509  0.47051633  0.62589872  1
  Na  Na40  1  0.80189012  0.36018843  0.56159757  1
  Na  Na41  1  0.30189012  0.63981157  0.93840243  1
  Na  Na42  1  0.69810988  0.86018843  0.43840243  1
  Na  Na43  1  0.19810988  0.13981157  0.06159757  1
  Na  Na44  1  0.19810988  0.63981157  0.43840243  1
  Na  Na45  1  0.69810988  0.36018843  0.06159757  1
  Na  Na46  1  0.30189012  0.13981157  0.56159757  1
  Na  Na47  1  0.80189012  0.86018843  0.93840243  1
