# generated using pymatgen
data_Tl2CuH12(SO7)2
_symmetry_space_group_name_H-M   'P 1'
_cell_length_a   6.29940220
_cell_length_b   9.29256897
_cell_length_c   12.50898267
_cell_angle_alpha   90.00000000
_cell_angle_beta   90.00000000
_cell_angle_gamma   104.61581031
_symmetry_Int_Tables_number   1
_chemical_formula_structural   Tl2CuH12(SO7)2
_chemical_formula_sum   'Tl4 Cu2 H24 S4 O28'
_cell_volume   708.55039581
_cell_formula_units_Z   2
loop_
 _symmetry_equiv_pos_site_id
 _symmetry_equiv_pos_as_xyz
  1  'x, y, z'
loop_
 _atom_site_type_symbol
 _atom_site_label
 _atom_site_symmetry_multiplicity
 _atom_site_fract_x
 _atom_site_fract_y
 _atom_site_fract_z
 _atom_site_occupancy
  H  H0  1  0.30396919  0.53248199  0.64148660  1
  H  H1  1  0.69603081  0.96751801  0.14148660  1
  H  H2  1  0.69603081  0.46751801  0.35851340  1
  H  H3  1  0.30396919  0.03248199  0.85851340  1
  H  H4  1  0.32168318  0.39940117  0.56349226  1
  H  H5  1  0.67831682  0.10059883  0.06349226  1
  H  H6  1  0.92124409  0.20103898  0.39352087  1
  H  H7  1  0.07875591  0.29896102  0.89352087  1
  H  H8  1  0.07875591  0.79896102  0.60647913  1
  H  H9  1  0.92124409  0.70103898  0.10647913  1
  H  H10  1  0.08378982  0.73196609  0.37913957  1
  H  H11  1  0.91621018  0.76803391  0.87913957  1
  H  H12  1  0.91621018  0.26803391  0.62086043  1
  H  H13  1  0.08378982  0.23196609  0.12086043  1
  H  H14  1  0.31592841  0.69725909  0.41083497  1
  H  H15  1  0.68407159  0.80274091  0.91083497  1
  H  H16  1  0.68407159  0.30274091  0.58916503  1
  H  H17  1  0.31592841  0.19725909  0.08916503  1
  H  H18  1  0.00209999  0.17668539  0.80417737  1
  H  H19  1  0.99790001  0.32331461  0.30417737  1
  H  H20  1  0.32168318  0.89940117  0.93650774  1
  H  H21  1  0.67831682  0.60059883  0.43650774  1
  H  H22  1  0.00209999  0.67668539  0.69582263  1
  H  H23  1  0.99790001  0.82331461  0.19582263  1
  O  O24  1  0.84076784  0.34875976  0.60795628  1
  O  O25  1  0.84076784  0.84875976  0.89204372  1
  O  O26  1  0.03083706  0.79617487  0.12213195  1
  O  O27  1  0.96916294  0.70382513  0.62213195  1
  O  O28  1  0.96916294  0.20382513  0.87786805  1
  O  O29  1  0.03083706  0.29617487  0.37786805  1
  O  O30  1  0.28319780  0.99768263  0.93450128  1
  O  O31  1  0.15923216  0.15124024  0.10795628  1
  O  O32  1  0.71680220  0.00231737  0.06549872  1
  O  O33  1  0.28319780  0.49768263  0.56549872  1
  O  O34  1  0.94789624  0.86149994  0.33244828  1
  O  O35  1  0.05210376  0.63850006  0.83244828  1
  O  O36  1  0.05210376  0.13850006  0.66755172  1
  O  O37  1  0.94789624  0.36149994  0.16755172  1
  O  O38  1  0.59975288  0.75922443  0.42591763  1
  O  O39  1  0.40024712  0.74077557  0.92591763  1
  O  O40  1  0.40024712  0.24077557  0.57408237  1
  O  O41  1  0.59975288  0.25922443  0.07408237  1
  O  O42  1  0.75831910  0.02564735  0.42531375  1
  O  O43  1  0.24168090  0.47435265  0.92531375  1
  O  O44  1  0.24168090  0.97435265  0.57468625  1
  O  O45  1  0.75831910  0.52564735  0.07468625  1
  O  O46  1  0.71680220  0.50231737  0.43450128  1
  O  O47  1  0.39571635  0.60111415  0.76067971  1
  O  O48  1  0.39571635  0.10111415  0.73932029  1
  O  O49  1  0.60428365  0.39888585  0.23932029  1
  O  O50  1  0.15923216  0.65124024  0.39204372  1
  O  O51  1  0.60428365  0.89888585  0.26067971  1
  S  S52  1  0.27077984  0.61186839  0.86045033  1
  S  S53  1  0.72922016  0.88813161  0.36045033  1
  S  S54  1  0.72922016  0.38813161  0.13954967  1
  S  S55  1  0.27077984  0.11186839  0.63954967  1
  Cu  Cu56  1  0.00000000  0.50000000  0.50000000  1
  Cu  Cu57  1  0.00000000  0.00000000  0.00000000  1
  Tl  Tl58  1  0.34406742  0.12535213  0.35415133  1
  Tl  Tl59  1  0.65593258  0.37464787  0.85415133  1
  Tl  Tl60  1  0.65593258  0.87464787  0.64584867  1
  Tl  Tl61  1  0.34406742  0.62535213  0.14584867  1
