# generated using pymatgen
data_BH3NF3
_symmetry_space_group_name_H-M   'P 1'
_cell_length_a   8.00041076
_cell_length_b   8.11172576
_cell_length_c   9.41484569
_cell_angle_alpha   90.00000000
_cell_angle_beta   90.00000000
_cell_angle_gamma   90.00000000
_symmetry_Int_Tables_number   1
_chemical_formula_structural   BH3NF3
_chemical_formula_sum   'B8 H24 N8 F24'
_cell_volume   610.99654049
_cell_formula_units_Z   8
loop_
 _symmetry_equiv_pos_site_id
 _symmetry_equiv_pos_as_xyz
  1  'x, y, z'
loop_
 _atom_site_type_symbol
 _atom_site_label
 _atom_site_symmetry_multiplicity
 _atom_site_fract_x
 _atom_site_fract_y
 _atom_site_fract_z
 _atom_site_occupancy
  H  H0  1  0.79408949  0.02569447  0.48811495  1
  H  H1  1  0.29408949  0.97430553  0.01188505  1
  H  H2  1  0.70591051  0.52569447  0.51188505  1
  H  H3  1  0.20591051  0.47430553  0.98811495  1
  H  H4  1  0.20591051  0.97430553  0.51188505  1
  H  H5  1  0.70591051  0.02569447  0.98811495  1
  H  H6  1  0.29408949  0.47430553  0.48811495  1
  H  H7  1  0.79408949  0.52569447  0.01188505  1
  H  H8  1  0.75336437  0.93559196  0.64197998  1
  H  H9  1  0.25336437  0.06440804  0.85802002  1
  H  H10  1  0.74663563  0.43559196  0.35802002  1
  H  H11  1  0.24663563  0.56440804  0.14197998  1
  H  H12  1  0.24663563  0.06440804  0.35802002  1
  H  H13  1  0.74663563  0.93559196  0.14197998  1
  H  H14  1  0.25336437  0.56440804  0.64197998  1
  H  H15  1  0.75336437  0.43559196  0.85802002  1
  H  H16  1  0.64454486  0.09980858  0.59228341  1
  H  H17  1  0.14454486  0.90019142  0.90771659  1
  H  H18  1  0.85545514  0.59980858  0.40771659  1
  H  H19  1  0.35545514  0.40019142  0.09228341  1
  H  H20  1  0.35545514  0.90019142  0.40771659  1
  H  H21  1  0.85545514  0.09980858  0.09228341  1
  H  H22  1  0.14454486  0.40019142  0.59228341  1
  H  H23  1  0.64454486  0.59980858  0.90771659  1
  B  B24  1  0.89642488  0.16132720  0.66924853  1
  B  B25  1  0.39642488  0.83867280  0.83075147  1
  B  B26  1  0.60357512  0.66132720  0.33075147  1
  B  B27  1  0.10357512  0.33867280  0.16924853  1
  B  B28  1  0.10357512  0.83867280  0.33075147  1
  B  B29  1  0.60357512  0.16132720  0.16924853  1
  B  B30  1  0.39642488  0.33867280  0.66924853  1
  B  B31  1  0.89642488  0.66132720  0.83075147  1
  N  N32  1  0.76241915  0.04828952  0.59221670  1
  N  N33  1  0.26241915  0.95171048  0.90778330  1
  N  N34  1  0.73758085  0.54828952  0.40778330  1
  N  N35  1  0.23758085  0.45171048  0.09221670  1
  N  N36  1  0.23758085  0.95171048  0.40778330  1
  N  N37  1  0.73758085  0.04828952  0.09221670  1
  N  N38  1  0.26241915  0.45171048  0.59221670  1
  N  N39  1  0.76241915  0.54828952  0.90778330  1
  F  F40  1  0.04893927  0.07395248  0.67345786  1
  F  F41  1  0.54893927  0.92604752  0.82654214  1
  F  F42  1  0.45106073  0.57395248  0.32654214  1
  F  F43  1  0.95106073  0.42604752  0.17345786  1
  F  F44  1  0.95106073  0.92604752  0.32654214  1
  F  F45  1  0.45106073  0.07395248  0.17345786  1
  F  F46  1  0.54893927  0.42604752  0.67345786  1
  F  F47  1  0.04893927  0.57395248  0.82654214  1
  F  F48  1  0.83872451  0.19735042  0.80707609  1
  F  F49  1  0.33872451  0.80264958  0.69292391  1
  F  F50  1  0.66127549  0.69735042  0.19292391  1
  F  F51  1  0.16127549  0.30264958  0.30707609  1
  F  F52  1  0.16127549  0.80264958  0.19292391  1
  F  F53  1  0.66127549  0.19735042  0.30707609  1
  F  F54  1  0.33872451  0.30264958  0.80707609  1
  F  F55  1  0.83872451  0.69735042  0.69292391  1
  F  F56  1  0.91713262  0.30808001  0.59021331  1
  F  F57  1  0.41713262  0.69191999  0.90978669  1
  F  F58  1  0.58286738  0.80808001  0.40978669  1
  F  F59  1  0.08286738  0.19191999  0.09021331  1
  F  F60  1  0.08286738  0.69191999  0.40978669  1
  F  F61  1  0.58286738  0.30808001  0.09021331  1
  F  F62  1  0.41713262  0.19191999  0.59021331  1
  F  F63  1  0.91713262  0.80808001  0.90978669  1
