# generated using pymatgen
data_Rb2ZnH12(SeO7)2
_symmetry_space_group_name_H-M   'P 1'
_cell_length_a   6.45603788
_cell_length_b   9.41547832
_cell_length_c   12.80854129
_cell_angle_alpha   90.00000000
_cell_angle_beta   90.00000000
_cell_angle_gamma   104.72586458
_symmetry_Int_Tables_number   1
_chemical_formula_structural   Rb2ZnH12(SeO7)2
_chemical_formula_sum   'Rb4 Zn2 H24 Se4 O28'
_cell_volume   753.01453544
_cell_formula_units_Z   2
loop_
 _symmetry_equiv_pos_site_id
 _symmetry_equiv_pos_as_xyz
  1  'x, y, z'
loop_
 _atom_site_type_symbol
 _atom_site_label
 _atom_site_symmetry_multiplicity
 _atom_site_fract_x
 _atom_site_fract_y
 _atom_site_fract_z
 _atom_site_occupancy
  H  H0  1  0.32362182  0.52835383  0.63834922  1
  H  H1  1  0.67637818  0.97164617  0.13834922  1
  H  H2  1  0.67637818  0.47164617  0.36165078  1
  H  H3  1  0.32362182  0.02835383  0.86165078  1
  H  H4  1  0.33417611  0.40254969  0.55777120  1
  H  H5  1  0.66582389  0.09745031  0.05777120  1
  H  H6  1  0.92856234  0.23010479  0.40418977  1
  H  H7  1  0.07143766  0.26989521  0.90418977  1
  H  H8  1  0.07143766  0.76989521  0.59581023  1
  H  H9  1  0.92856234  0.73010479  0.09581023  1
  H  H10  1  0.09719896  0.74145070  0.37259978  1
  H  H11  1  0.90280104  0.75854930  0.87259978  1
  H  H12  1  0.90280104  0.25854930  0.62740022  1
  H  H13  1  0.09719896  0.24145070  0.12740022  1
  H  H14  1  0.31797545  0.70666738  0.40932622  1
  H  H15  1  0.68202455  0.79333262  0.90932622  1
  H  H16  1  0.68202455  0.29333262  0.59067378  1
  H  H17  1  0.31797545  0.20666738  0.09067378  1
  H  H18  1  0.00113445  0.14742021  0.81659256  1
  H  H19  1  0.99886555  0.35257979  0.31659256  1
  H  H20  1  0.33417611  0.90254969  0.94222880  1
  H  H21  1  0.66582389  0.59745031  0.44222880  1
  H  H22  1  0.00113445  0.64742021  0.68340744  1
  H  H23  1  0.99886555  0.85257979  0.18340744  1
  O  O24  1  0.83243972  0.33862549  0.61238826  1
  O  O25  1  0.83243972  0.83862549  0.88761174  1
  O  O26  1  0.02701999  0.82878009  0.10976222  1
  O  O27  1  0.97298001  0.67121991  0.60976222  1
  O  O28  1  0.97298001  0.17121991  0.89023778  1
  O  O29  1  0.02701999  0.32878009  0.39023778  1
  O  O30  1  0.29311204  0.99721188  0.93585836  1
  O  O31  1  0.16756028  0.16137451  0.11238826  1
  O  O32  1  0.70688796  0.00278812  0.06414164  1
  O  O33  1  0.29311204  0.49721188  0.56414164  1
  O  O34  1  0.96646857  0.87414176  0.31822352  1
  O  O35  1  0.03353143  0.62585824  0.81822352  1
  O  O36  1  0.03353143  0.12585824  0.68177648  1
  O  O37  1  0.96646857  0.37414176  0.18177648  1
  O  O38  1  0.59989078  0.76382581  0.43542244  1
  O  O39  1  0.40010922  0.73617419  0.93542244  1
  O  O40  1  0.40010922  0.23617419  0.56457756  1
  O  O41  1  0.59989078  0.26382581  0.06457756  1
  O  O42  1  0.77522731  0.05749800  0.43042782  1
  O  O43  1  0.22477269  0.44250200  0.93042782  1
  O  O44  1  0.22477269  0.94250200  0.56957218  1
  O  O45  1  0.77522731  0.55749800  0.06957218  1
  O  O46  1  0.70688796  0.50278812  0.43585836  1
  O  O47  1  0.42297640  0.58576413  0.75684214  1
  O  O48  1  0.42297640  0.08576413  0.74315786  1
  O  O49  1  0.57702360  0.41423587  0.24315786  1
  O  O50  1  0.16756028  0.66137451  0.38761174  1
  O  O51  1  0.57702360  0.91423587  0.25684214  1
  Zn  Zn52  1  0.00000000  0.00000000  0.00000000  1
  Zn  Zn53  1  0.00000000  0.50000000  0.50000000  1
  Se  Se54  1  0.73303191  0.40357716  0.14016269  1
  Se  Se55  1  0.26696809  0.09642284  0.64016269  1
  Se  Se56  1  0.73303191  0.90357716  0.35983731  1
  Se  Se57  1  0.26696809  0.59642284  0.85983731  1
  Rb  Rb58  1  0.34379719  0.13357851  0.34634803  1
  Rb  Rb59  1  0.65620281  0.36642149  0.84634803  1
  Rb  Rb60  1  0.65620281  0.86642149  0.65365197  1
  Rb  Rb61  1  0.34379719  0.63357851  0.15365197  1
