# generated using pymatgen
data_RbP(HO)2
_symmetry_space_group_name_H-M   'P 1'
_cell_length_a   6.45224792
_cell_length_b   7.72029028
_cell_length_c   8.27422336
_cell_angle_alpha   90.00000000
_cell_angle_beta   90.00000000
_cell_angle_gamma   90.00000000
_symmetry_Int_Tables_number   1
_chemical_formula_structural   RbP(HO)2
_chemical_formula_sum   'Rb4 P4 H8 O8'
_cell_volume   412.16576566
_cell_formula_units_Z   4
loop_
 _symmetry_equiv_pos_site_id
 _symmetry_equiv_pos_as_xyz
  1  'x, y, z'
loop_
 _atom_site_type_symbol
 _atom_site_label
 _atom_site_symmetry_multiplicity
 _atom_site_fract_x
 _atom_site_fract_y
 _atom_site_fract_z
 _atom_site_occupancy
  H  H0  1  0.75000000  0.05908822  0.74304298  1
  H  H1  1  0.25000000  0.94091178  0.25695702  1
  H  H2  1  0.25000000  0.55908822  0.75695702  1
  H  H3  1  0.75000000  0.44091178  0.24304298  1
  H  H4  1  0.75000000  0.05441216  0.01029492  1
  H  H5  1  0.25000000  0.94558784  0.98970508  1
  H  H6  1  0.25000000  0.55441216  0.48970508  1
  H  H7  1  0.75000000  0.44558784  0.51029492  1
  O  O8  1  0.54701112  0.22576327  0.37922930  1
  O  O9  1  0.04701112  0.77423673  0.62077070  1
  O  O10  1  0.45298888  0.72576327  0.12077070  1
  O  O11  1  0.95298888  0.27423673  0.87922930  1
  O  O12  1  0.45298888  0.77423673  0.62077070  1
  O  O13  1  0.95298888  0.22576327  0.37922930  1
  O  O14  1  0.54701112  0.27423673  0.87922930  1
  O  O15  1  0.04701112  0.72576327  0.12077070  1
  P  P16  1  0.75000000  0.17449346  0.87854719  1
  P  P17  1  0.25000000  0.82550654  0.12145281  1
  P  P18  1  0.25000000  0.67449346  0.62145281  1
  P  P19  1  0.75000000  0.32550654  0.37854719  1
  Rb  Rb20  1  0.25000000  0.36113070  0.13148428  1
  Rb  Rb21  1  0.75000000  0.63886930  0.86851572  1
  Rb  Rb22  1  0.75000000  0.86113070  0.36851572  1
  Rb  Rb23  1  0.25000000  0.13886930  0.63148428  1
