# generated using pymatgen
data_SrPH3O4
_symmetry_space_group_name_H-M   'P 1'
_cell_length_a   7.15788568
_cell_length_b   7.68841233
_cell_length_c   8.24036879
_cell_angle_alpha   108.47471370
_cell_angle_beta   90.00000000
_cell_angle_gamma   90.00000000
_symmetry_Int_Tables_number   1
_chemical_formula_structural   SrPH3O4
_chemical_formula_sum   'Sr4 P4 H12 O16'
_cell_volume   430.11911221
_cell_formula_units_Z   4
loop_
 _symmetry_equiv_pos_site_id
 _symmetry_equiv_pos_as_xyz
  1  'x, y, z'
loop_
 _atom_site_type_symbol
 _atom_site_label
 _atom_site_symmetry_multiplicity
 _atom_site_fract_x
 _atom_site_fract_y
 _atom_site_fract_z
 _atom_site_occupancy
  H  H0  1  0.26094449  0.88878695  0.99568901  1
  H  H1  1  0.76094449  0.11121305  0.50431099  1
  H  H2  1  0.73905551  0.11121305  0.00431099  1
  H  H3  1  0.23905551  0.88878695  0.49568901  1
  H  H4  1  0.39400280  0.00416187  0.29844435  1
  H  H5  1  0.89400280  0.99583813  0.20155565  1
  H  H6  1  0.60599720  0.99583813  0.70155565  1
  H  H7  1  0.10599720  0.00416187  0.79844435  1
  H  H8  1  0.54699974  0.80810596  0.72766854  1
  H  H9  1  0.04699974  0.19189404  0.77233146  1
  H  H10  1  0.45300026  0.19189404  0.27233146  1
  H  H11  1  0.95300026  0.80810596  0.22766854  1
  O  O12  1  0.20039180  0.57255974  0.95766546  1
  O  O13  1  0.11626666  0.14001411  0.85090888  1
  O  O14  1  0.88373334  0.85998589  0.14909112  1
  O  O15  1  0.38373334  0.14001411  0.35090888  1
  O  O16  1  0.99662411  0.67941451  0.36619443  1
  O  O17  1  0.49662411  0.32058549  0.13380557  1
  O  O18  1  0.00337589  0.32058549  0.63380557  1
  O  O19  1  0.50337589  0.67941451  0.86619443  1
  O  O20  1  0.07782820  0.77225386  0.68826235  1
  O  O21  1  0.57782820  0.22774614  0.81173765  1
  O  O22  1  0.92217180  0.22774614  0.31173765  1
  O  O23  1  0.42217180  0.77225386  0.18826235  1
  O  O24  1  0.79960820  0.42744026  0.04233454  1
  O  O25  1  0.29960820  0.57255974  0.45766546  1
  O  O26  1  0.61626666  0.85998589  0.64909112  1
  O  O27  1  0.70039180  0.42744026  0.54233454  1
  P  P28  1  0.34882252  0.72785577  0.00501292  1
  P  P29  1  0.84882252  0.27214423  0.49498708  1
  P  P30  1  0.65117748  0.27214423  0.99498708  1
  P  P31  1  0.15117748  0.72785577  0.50501292  1
  Sr  Sr32  1  0.35968470  0.37353382  0.65402499  1
  Sr  Sr33  1  0.85968470  0.62646618  0.84597501  1
  Sr  Sr34  1  0.64031530  0.62646618  0.34597501  1
  Sr  Sr35  1  0.14031530  0.37353382  0.15402499  1
