# generated using pymatgen
data_ScH3Br3N
_symmetry_space_group_name_H-M   'P 1'
_cell_length_a   7.66619241
_cell_length_b   9.78478750
_cell_length_c   9.90309868
_cell_angle_alpha   72.79502489
_cell_angle_beta   76.73290253
_cell_angle_gamma   80.80650200
_symmetry_Int_Tables_number   1
_chemical_formula_structural   ScH3Br3N
_chemical_formula_sum   'Sc4 H12 Br12 N4'
_cell_volume   687.29100377
_cell_formula_units_Z   4
loop_
 _symmetry_equiv_pos_site_id
 _symmetry_equiv_pos_as_xyz
  1  'x, y, z'
loop_
 _atom_site_type_symbol
 _atom_site_label
 _atom_site_symmetry_multiplicity
 _atom_site_fract_x
 _atom_site_fract_y
 _atom_site_fract_z
 _atom_site_occupancy
  H  H0  1  0.70177721  0.73911114  0.34960945  1
  H  H1  1  0.29822279  0.26088886  0.65039055  1
  H  H2  1  0.68796646  0.59808867  0.49101066  1
  H  H3  1  0.31203354  0.40191133  0.50898934  1
  H  H4  1  0.77778189  0.73947606  0.49178473  1
  H  H5  1  0.22221811  0.26052394  0.50821527  1
  H  H6  1  0.60432353  0.24052440  0.99889699  1
  H  H7  1  0.39567647  0.75947560  0.00110301  1
  H  H8  1  0.23987814  0.76023217  0.14580328  1
  H  H9  1  0.75377855  0.09968190  0.99644475  1
  H  H10  1  0.24622145  0.90031810  0.00355525  1
  H  H11  1  0.76012186  0.23976783  0.85419672  1
  N  N12  1  0.32518079  0.29118835  0.53939276  1
  N  N13  1  0.67481921  0.70881165  0.46060724  1
  N  N14  1  0.26212274  0.78952486  0.03490853  1
  N  N15  1  0.73787726  0.21047514  0.96509147  1
  Sc  Sc16  1  0.39766547  0.80788588  0.55239107  1
  Sc  Sc17  1  0.07861665  0.69521963  0.94035306  1
  Sc  Sc18  1  0.60233453  0.19211412  0.44760893  1
  Sc  Sc19  1  0.92138335  0.30478037  0.05964694  1
  Br  Br20  1  0.09221197  0.91440459  0.70229409  1
  Br  Br21  1  0.41550675  0.04729166  0.33565243  1
  Br  Br22  1  0.39536708  0.59090205  0.79098520  1
  Br  Br23  1  0.60463292  0.40909795  0.20901480  1
  Br  Br24  1  0.58449325  0.95270834  0.66434757  1
  Br  Br25  1  0.90778803  0.08559541  0.29770591  1
  Br  Br26  1  0.09818836  0.46020838  0.16057558  1
  Br  Br27  1  0.90181164  0.53979162  0.83942442  1
  Br  Br28  1  0.79455505  0.81871504  0.06391866  1
  Br  Br29  1  0.20544495  0.18128496  0.93608134  1
  Br  Br30  1  0.76209059  0.31439745  0.57307053  1
  Br  Br31  1  0.23790941  0.68560255  0.42692947  1
