# generated using pymatgen
data_LiCoSiO4
_symmetry_space_group_name_H-M   'P 1'
_cell_length_a   6.31082151
_cell_length_b   8.91140809
_cell_length_c   4.86086895
_cell_angle_alpha   90.00000000
_cell_angle_beta   91.72377102
_cell_angle_gamma   90.00000000
_symmetry_Int_Tables_number   1
_chemical_formula_structural   LiCoSiO4
_chemical_formula_sum   'Li4 Co4 Si4 O16'
_cell_volume   273.24332676
_cell_formula_units_Z   4
loop_
 _symmetry_equiv_pos_site_id
 _symmetry_equiv_pos_as_xyz
  1  'x, y, z'
loop_
 _atom_site_type_symbol
 _atom_site_label
 _atom_site_symmetry_multiplicity
 _atom_site_fract_x
 _atom_site_fract_y
 _atom_site_fract_z
 _atom_site_occupancy
  Li  Li0  1  0.24021098  0.16292716  0.53075974  1
  Li  Li1  1  0.25978902  0.66292716  0.96924026  1
  Li  Li2  1  0.74021098  0.33707284  0.03075974  1
  Li  Li3  1  0.75978902  0.83707284  0.46924026  1
  Co  Co4  1  0.00000000  0.50000000  0.50000000  1
  Co  Co5  1  0.00000000  0.00000000  0.00000000  1
  Co  Co6  1  0.50000000  0.50000000  0.50000000  1
  Co  Co7  1  0.50000000  0.00000000  0.00000000  1
  Si  Si8  1  0.23950305  0.32171772  0.03259436  1
  Si  Si9  1  0.26049695  0.82171772  0.46740564  1
  Si  Si10  1  0.73950305  0.17828228  0.53259436  1
  Si  Si11  1  0.76049695  0.67828228  0.96740564  1
  O  O12  1  0.02940028  0.38512640  0.18341919  1
  O  O13  1  0.04277574  0.88386066  0.31240336  1
  O  O14  1  0.24216267  0.37026652  0.70726977  1
  O  O15  1  0.24024259  0.13650392  0.10132320  1
  O  O16  1  0.25975741  0.63650392  0.39867680  1
  O  O17  1  0.25783733  0.87026652  0.79273023  1
  O  O18  1  0.45722426  0.38386066  0.18759664  1
  O  O19  1  0.47059972  0.88512640  0.31658081  1
  O  O20  1  0.52940028  0.11487360  0.68341919  1
  O  O21  1  0.54277574  0.61613934  0.81240336  1
  O  O22  1  0.74216267  0.12973348  0.20726977  1
  O  O23  1  0.74024259  0.36349608  0.60132320  1
  O  O24  1  0.75975741  0.86349608  0.89867680  1
  O  O25  1  0.75783733  0.62973348  0.29273023  1
  O  O26  1  0.95722426  0.11613934  0.68759664  1
  O  O27  1  0.97059972  0.61487360  0.81658081  1
