# generated using pymatgen
data_Sc2P3(HO3)3
_symmetry_space_group_name_H-M   'P 1'
_cell_length_a   8.43540140
_cell_length_b   8.43540140
_cell_length_c   7.80501016
_cell_angle_alpha   90.00000000
_cell_angle_beta   90.00000000
_cell_angle_gamma   119.99999998
_symmetry_Int_Tables_number   1
_chemical_formula_structural   Sc2P3(HO3)3
_chemical_formula_sum   'Sc4 P6 H6 O18'
_cell_volume   480.96736726
_cell_formula_units_Z   2
loop_
 _symmetry_equiv_pos_site_id
 _symmetry_equiv_pos_as_xyz
  1  'x, y, z'
loop_
 _atom_site_type_symbol
 _atom_site_label
 _atom_site_symmetry_multiplicity
 _atom_site_fract_x
 _atom_site_fract_y
 _atom_site_fract_z
 _atom_site_occupancy
  H  H0  1  0.83050680  0.00483422  0.75000000  1
  H  H1  1  0.99516578  0.82567258  0.75000000  1
  H  H2  1  0.16949320  0.99516578  0.25000000  1
  H  H3  1  0.82567258  0.83050680  0.25000000  1
  H  H4  1  0.17432742  0.16949320  0.75000000  1
  H  H5  1  0.00483422  0.17432742  0.25000000  1
  O  O6  1  0.43960115  0.15200574  0.41423549  1
  O  O7  1  0.28759542  0.43960115  0.91423549  1
  O  O8  1  0.15200574  0.71240458  0.91423549  1
  O  O9  1  0.84799426  0.28759542  0.41423549  1
  O  O10  1  0.13923403  0.49802506  0.25000000  1
  O  O11  1  0.86076597  0.50197494  0.75000000  1
  O  O12  1  0.64120897  0.13923403  0.75000000  1
  O  O13  1  0.49802506  0.35879103  0.75000000  1
  O  O14  1  0.50197494  0.64120897  0.25000000  1
  O  O15  1  0.35879103  0.86076597  0.25000000  1
  O  O16  1  0.43960115  0.15200574  0.08576451  1
  O  O17  1  0.28759542  0.43960115  0.58576451  1
  O  O18  1  0.15200574  0.71240458  0.58576451  1
  O  O19  1  0.84799426  0.28759542  0.08576451  1
  O  O20  1  0.71240458  0.56039885  0.08576451  1
  O  O21  1  0.56039885  0.84799426  0.58576451  1
  O  O22  1  0.56039885  0.84799426  0.91423549  1
  O  O23  1  0.71240458  0.56039885  0.41423549  1
  P  P24  1  0.64488228  0.95686928  0.75000000  1
  P  P25  1  0.68801300  0.64488228  0.25000000  1
  P  P26  1  0.95686928  0.31198700  0.25000000  1
  P  P27  1  0.04313072  0.68801300  0.75000000  1
  P  P28  1  0.31198700  0.35511772  0.75000000  1
  P  P29  1  0.35511772  0.04313072  0.25000000  1
  Sc  Sc30  1  0.33333333  0.66666667  0.45448780  1
  Sc  Sc31  1  0.66666667  0.33333333  0.95448780  1
  Sc  Sc32  1  0.66666667  0.33333333  0.54551220  1
  Sc  Sc33  1  0.33333333  0.66666667  0.04551220  1
