# generated using pymatgen
data_TcOF4
_symmetry_space_group_name_H-M   'P 1'
_cell_length_a   9.30694461
_cell_length_b   9.30694461
_cell_length_c   8.28903682
_cell_angle_alpha   90.00000000
_cell_angle_beta   90.00000000
_cell_angle_gamma   119.99999998
_symmetry_Int_Tables_number   1
_chemical_formula_structural   TcOF4
_chemical_formula_sum   'Tc6 O6 F24'
_cell_volume   621.79748236
_cell_formula_units_Z   6
loop_
 _symmetry_equiv_pos_site_id
 _symmetry_equiv_pos_as_xyz
  1  'x, y, z'
loop_
 _atom_site_type_symbol
 _atom_site_label
 _atom_site_symmetry_multiplicity
 _atom_site_fract_x
 _atom_site_fract_y
 _atom_site_fract_z
 _atom_site_occupancy
  O  O0  1  0.86267813  0.31739018  0.25000000  1
  O  O1  1  0.13732187  0.68260982  0.75000000  1
  O  O2  1  0.45471205  0.13732187  0.25000000  1
  O  O3  1  0.68260982  0.54528795  0.25000000  1
  O  O4  1  0.31739018  0.45471205  0.75000000  1
  O  O5  1  0.54528795  0.86267813  0.75000000  1
  F  F6  1  0.12228226  0.42116813  0.46971884  1
  F  F7  1  0.87771774  0.57883187  0.96971884  1
  F  F8  1  0.29888587  0.87771774  0.46971884  1
  F  F9  1  0.57883187  0.70111413  0.46971884  1
  F  F10  1  0.42116813  0.29888587  0.96971884  1
  F  F11  1  0.70111413  0.12228226  0.96971884  1
  F  F12  1  0.09398833  0.21165759  0.25000000  1
  F  F13  1  0.88233074  0.09398833  0.75000000  1
  F  F14  1  0.21165759  0.11766926  0.75000000  1
  F  F15  1  0.78834241  0.88233074  0.25000000  1
  F  F16  1  0.11766926  0.90601167  0.25000000  1
  F  F17  1  0.90601167  0.78834241  0.75000000  1
  F  F18  1  0.36902763  0.51585169  0.25000000  1
  F  F19  1  0.85317594  0.36902763  0.75000000  1
  F  F20  1  0.51585169  0.14682406  0.75000000  1
  F  F21  1  0.48414831  0.85317594  0.25000000  1
  F  F22  1  0.14682406  0.63097237  0.25000000  1
  F  F23  1  0.63097237  0.48414831  0.75000000  1
  F  F24  1  0.12228226  0.42116813  0.03028116  1
  F  F25  1  0.70111413  0.12228226  0.53028116  1
  F  F26  1  0.42116813  0.29888587  0.53028116  1
  F  F27  1  0.57883187  0.70111413  0.03028116  1
  F  F28  1  0.29888587  0.87771774  0.03028116  1
  F  F29  1  0.87771774  0.57883187  0.53028116  1
  Tc  Tc30  1  0.93374955  0.60388577  0.75000000  1
  Tc  Tc31  1  0.32986378  0.93374955  0.25000000  1
  Tc  Tc32  1  0.60388577  0.67013622  0.25000000  1
  Tc  Tc33  1  0.39611423  0.32986378  0.75000000  1
  Tc  Tc34  1  0.67013622  0.06625045  0.75000000  1
  Tc  Tc35  1  0.06625045  0.39611423  0.25000000  1
