# generated using pymatgen
data_ZnHgAsHO5
_symmetry_space_group_name_H-M   'P 1'
_cell_length_a   6.42726829
_cell_length_b   7.76168441
_cell_length_c   8.83815627
_cell_angle_alpha   90.00000000
_cell_angle_beta   90.00000000
_cell_angle_gamma   90.00000000
_symmetry_Int_Tables_number   1
_chemical_formula_structural   ZnHgAsHO5
_chemical_formula_sum   'Zn4 Hg4 As4 H4 O20'
_cell_volume   440.90404717
_cell_formula_units_Z   4
loop_
 _symmetry_equiv_pos_site_id
 _symmetry_equiv_pos_as_xyz
  1  'x, y, z'
loop_
 _atom_site_type_symbol
 _atom_site_label
 _atom_site_symmetry_multiplicity
 _atom_site_fract_x
 _atom_site_fract_y
 _atom_site_fract_z
 _atom_site_occupancy
  H  H0  1  0.25000000  0.74063331  0.95722762  1
  H  H1  1  0.75000000  0.25936669  0.04277238  1
  H  H2  1  0.25000000  0.24063331  0.54277238  1
  H  H3  1  0.75000000  0.75936669  0.45722762  1
  O  O4  1  0.25000000  0.86093169  0.91952524  1
  O  O5  1  0.75000000  0.13906831  0.08047476  1
  O  O6  1  0.25000000  0.36093169  0.58047476  1
  O  O7  1  0.75000000  0.63906831  0.41952524  1
  O  O8  1  0.25000000  0.67409921  0.43149364  1
  O  O9  1  0.75000000  0.32590079  0.56850636  1
  O  O10  1  0.25000000  0.17409921  0.06850636  1
  O  O11  1  0.75000000  0.82590079  0.93149364  1
  O  O12  1  0.97429711  0.62626592  0.71525732  1
  O  O13  1  0.47429711  0.37373408  0.28474268  1
  O  O14  1  0.52570289  0.12626592  0.78474268  1
  O  O15  1  0.02570289  0.87373408  0.21525732  1
  O  O16  1  0.02570289  0.37373408  0.28474268  1
  O  O17  1  0.52570289  0.62626592  0.71525732  1
  O  O18  1  0.47429711  0.87373408  0.21525732  1
  O  O19  1  0.97429711  0.12626592  0.78474268  1
  O  O20  1  0.75000000  0.97815384  0.53934847  1
  O  O21  1  0.25000000  0.02184616  0.46065153  1
  O  O22  1  0.75000000  0.47815384  0.96065153  1
  O  O23  1  0.25000000  0.52184616  0.03934847  1
  Zn  Zn24  1  0.00000000  0.50000000  0.50000000  1
  Zn  Zn25  1  0.50000000  0.50000000  0.50000000  1
  Zn  Zn26  1  0.50000000  0.00000000  0.00000000  1
  Zn  Zn27  1  0.00000000  0.00000000  0.00000000  1
  As  As28  1  0.25000000  0.86061807  0.32181644  1
  As  As29  1  0.75000000  0.13938193  0.67818356  1
  As  As30  1  0.25000000  0.36061807  0.17818356  1
  As  As31  1  0.75000000  0.63938193  0.82181644  1
  Hg  Hg32  1  0.25000000  0.88679376  0.67510548  1
  Hg  Hg33  1  0.75000000  0.11320624  0.32489452  1
  Hg  Hg34  1  0.25000000  0.38679376  0.82489452  1
  Hg  Hg35  1  0.75000000  0.61320624  0.17510548  1
