# generated using pymatgen
data_La2ReO5
_symmetry_space_group_name_H-M   'P 1'
_cell_length_a   6.05915564
_cell_length_b   7.04223618
_cell_length_c   7.04223619
_cell_angle_alpha   79.33461181
_cell_angle_beta   64.51967631
_cell_angle_gamma   64.51967629
_symmetry_Int_Tables_number   1
_chemical_formula_structural   La2ReO5
_chemical_formula_sum   'La4 Re2 O10'
_cell_volume   244.87925296
_cell_formula_units_Z   2
loop_
 _symmetry_equiv_pos_site_id
 _symmetry_equiv_pos_as_xyz
  1  'x, y, z'
loop_
 _atom_site_type_symbol
 _atom_site_label
 _atom_site_symmetry_multiplicity
 _atom_site_fract_x
 _atom_site_fract_y
 _atom_site_fract_z
 _atom_site_occupancy
  O  O0  1  0.83700339  0.09243472  0.71654487  1
  O  O1  1  0.55354826  0.28345513  0.09243472  1
  O  O2  1  0.92943811  0.71654487  0.90756528  1
  O  O3  1  0.64598298  0.90756528  0.28345513  1
  O  O4  1  0.16299661  0.90756528  0.28345513  1
  O  O5  1  0.44645174  0.71654487  0.90756528  1
  O  O6  1  0.75000000  0.50000000  0.50000000  1
  O  O7  1  0.25000000  0.50000000  0.50000000  1
  O  O8  1  0.35401702  0.09243472  0.71654487  1
  O  O9  1  0.07056189  0.28345513  0.09243472  1
  La  La10  1  0.81816886  0.78682566  0.57683662  1
  La  La11  1  0.39500548  0.42316338  0.78682566  1
  La  La12  1  0.60499452  0.57683662  0.21317434  1
  La  La13  1  0.18183114  0.21317434  0.42316338  1
  Re  Re14  1  0.81208200  0.00000000  0.00000000  1
  Re  Re15  1  0.18791800  0.00000000  0.00000000  1
