# generated using pymatgen
data_LiTiVO4
_symmetry_space_group_name_H-M   'P 1'
_cell_length_a   5.97211847
_cell_length_b   5.97211806
_cell_length_c   5.92625858
_cell_angle_alpha   60.29125926
_cell_angle_beta   60.29125375
_cell_angle_gamma   90.06034810
_symmetry_Int_Tables_number   1
_chemical_formula_structural   LiTiVO4
_chemical_formula_sum   'Li2 Ti2 V2 O8'
_cell_volume   150.68861556
_cell_formula_units_Z   2
loop_
 _symmetry_equiv_pos_site_id
 _symmetry_equiv_pos_as_xyz
  1  'x, y, z'
loop_
 _atom_site_type_symbol
 _atom_site_label
 _atom_site_symmetry_multiplicity
 _atom_site_fract_x
 _atom_site_fract_y
 _atom_site_fract_z
 _atom_site_occupancy
  Li  Li0  1  0.50000000  0.50000000  0.50000000  1
  Li  Li1  1  0.50000000  0.50000000  0.00000000  1
  Ti  Ti2  1  0.00000000  0.00000000  0.50000000  1
  Ti  Ti3  1  0.00000000  0.00000000  0.00000000  1
  V  V4  1  0.00000000  0.50000000  0.50000000  1
  V  V5  1  0.50000000  0.00000000  0.00000000  1
  O  O6  1  0.23405660  0.76635434  0.47374626  1
  O  O7  1  0.76964102  0.77994912  0.97494963  1
  O  O8  1  0.23364566  0.76594340  0.02625374  1
  O  O9  1  0.22005088  0.23035898  0.52505037  1
  O  O10  1  0.77994912  0.76964102  0.47494963  1
  O  O11  1  0.76635434  0.23405660  0.97374626  1
  O  O12  1  0.23035898  0.22005088  0.02505037  1
  O  O13  1  0.76594340  0.23364566  0.52625374  1
