# generated using pymatgen
data_Ca2BHN2
_symmetry_space_group_name_H-M   'P 1'
_cell_length_a   3.68067688
_cell_length_b   9.21101204
_cell_length_c   10.01033477
_cell_angle_alpha   90.00000000
_cell_angle_beta   90.00000000
_cell_angle_gamma   90.00000000
_symmetry_Int_Tables_number   1
_chemical_formula_structural   Ca2BHN2
_chemical_formula_sum   'Ca8 B4 H4 N8'
_cell_volume   339.37796779
_cell_formula_units_Z   4
loop_
 _symmetry_equiv_pos_site_id
 _symmetry_equiv_pos_as_xyz
  1  'x, y, z'
loop_
 _atom_site_type_symbol
 _atom_site_label
 _atom_site_symmetry_multiplicity
 _atom_site_fract_x
 _atom_site_fract_y
 _atom_site_fract_z
 _atom_site_occupancy
  H  H0  1  0.25000000  0.95903444  0.89743287  1
  H  H1  1  0.75000000  0.04096556  0.10256713  1
  H  H2  1  0.25000000  0.45903444  0.60256713  1
  H  H3  1  0.75000000  0.54096556  0.39743287  1
  B  B4  1  0.25000000  0.73445190  0.17649264  1
  B  B5  1  0.75000000  0.26554810  0.82350736  1
  B  B6  1  0.25000000  0.23445190  0.32350736  1
  B  B7  1  0.75000000  0.76554810  0.67649264  1
  N  N8  1  0.75000000  0.67906113  0.78310402  1
  N  N9  1  0.25000000  0.32093887  0.21689598  1
  N  N10  1  0.75000000  0.17906113  0.71689598  1
  N  N11  1  0.25000000  0.82093887  0.28310402  1
  N  N12  1  0.75000000  0.84756715  0.56430320  1
  N  N13  1  0.25000000  0.15243285  0.43569680  1
  N  N14  1  0.75000000  0.34756715  0.93569680  1
  N  N15  1  0.25000000  0.65243285  0.06430320  1
  Ca  Ca16  1  0.25000000  0.67660764  0.47566690  1
  Ca  Ca17  1  0.75000000  0.32339236  0.52433310  1
  Ca  Ca18  1  0.25000000  0.17660764  0.02433310  1
  Ca  Ca19  1  0.75000000  0.82339236  0.97566690  1
  Ca  Ca20  1  0.25000000  0.52732948  0.84413009  1
  Ca  Ca21  1  0.75000000  0.47267052  0.15586991  1
  Ca  Ca22  1  0.25000000  0.02732948  0.65586991  1
  Ca  Ca23  1  0.75000000  0.97267052  0.34413009  1
