# generated using pymatgen
data_K3(PtO2)2
_symmetry_space_group_name_H-M   'P 1'
_cell_length_a   5.61682888
_cell_length_b   5.61682957
_cell_length_c   11.79592760
_cell_angle_alpha   90.00000000
_cell_angle_beta   90.00000000
_cell_angle_gamma   113.49256627
_symmetry_Int_Tables_number   1
_chemical_formula_structural   K3(PtO2)2
_chemical_formula_sum   'K6 Pt4 O8'
_cell_volume   341.30041729
_cell_formula_units_Z   2
loop_
 _symmetry_equiv_pos_site_id
 _symmetry_equiv_pos_as_xyz
  1  'x, y, z'
loop_
 _atom_site_type_symbol
 _atom_site_label
 _atom_site_symmetry_multiplicity
 _atom_site_fract_x
 _atom_site_fract_y
 _atom_site_fract_z
 _atom_site_occupancy
  K  K0  1  0.35183157  0.64816843  0.93227401  1
  K  K1  1  0.64816843  0.35183157  0.43227401  1
  K  K2  1  0.64816843  0.35183157  0.06772599  1
  K  K3  1  0.35183157  0.64816843  0.56772599  1
  K  K4  1  0.71060666  0.28939334  0.75000000  1
  K  K5  1  0.28939334  0.71060666  0.25000000  1
  Pt  Pt6  1  0.00000000  0.00000000  0.00000000  1
  Pt  Pt7  1  0.00000000  0.00000000  0.50000000  1
  Pt  Pt8  1  0.07814000  0.92186000  0.75000000  1
  Pt  Pt9  1  0.92186000  0.07814000  0.25000000  1
  O  O10  1  0.71050535  0.87258400  0.11586797  1
  O  O11  1  0.28949465  0.12741600  0.61586797  1
  O  O12  1  0.87258400  0.71050535  0.88413203  1
  O  O13  1  0.12741600  0.28949465  0.38413203  1
  O  O14  1  0.28949465  0.12741600  0.88413203  1
  O  O15  1  0.71050535  0.87258400  0.38413203  1
  O  O16  1  0.12741600  0.28949465  0.11586797  1
  O  O17  1  0.87258400  0.71050535  0.61586797  1
