# generated using pymatgen
data_NaSb3F10
_symmetry_space_group_name_H-M   'P 1'
_cell_length_a   8.35519789
_cell_length_b   8.35519789
_cell_length_c   7.87630663
_cell_angle_alpha   90.00000000
_cell_angle_beta   90.00000000
_cell_angle_gamma   119.99999999
_symmetry_Int_Tables_number   1
_chemical_formula_structural   NaSb3F10
_chemical_formula_sum   'Na2 Sb6 F20'
_cell_volume   476.17515082
_cell_formula_units_Z   2
loop_
 _symmetry_equiv_pos_site_id
 _symmetry_equiv_pos_as_xyz
  1  'x, y, z'
loop_
 _atom_site_type_symbol
 _atom_site_label
 _atom_site_symmetry_multiplicity
 _atom_site_fract_x
 _atom_site_fract_y
 _atom_site_fract_z
 _atom_site_occupancy
  F  F0  1  0.33333333  0.66666667  0.73495063  1
  F  F1  1  0.66666667  0.33333333  0.23495063  1
  F  F2  1  0.96389446  0.50630914  0.78009501  1
  F  F3  1  0.45758531  0.96389446  0.28009501  1
  F  F4  1  0.50630914  0.54241469  0.28009501  1
  F  F5  1  0.49369086  0.45758531  0.78009501  1
  F  F6  1  0.54241469  0.03610554  0.78009501  1
  F  F7  1  0.03610554  0.49369086  0.28009501  1
  F  F8  1  0.20501390  0.39535910  0.99521527  1
  F  F9  1  0.80965480  0.20501390  0.49521527  1
  F  F10  1  0.39535910  0.19034520  0.49521527  1
  F  F11  1  0.60464090  0.80965480  0.99521527  1
  F  F12  1  0.19034520  0.79498610  0.99521527  1
  F  F13  1  0.79498610  0.60464090  0.49521527  1
  F  F14  1  0.11206387  0.22610990  0.33865232  1
  F  F15  1  0.88595397  0.11206387  0.83865232  1
  F  F16  1  0.22610990  0.11404603  0.83865232  1
  F  F17  1  0.77389010  0.88595397  0.33865232  1
  F  F18  1  0.11404603  0.88793613  0.33865232  1
  F  F19  1  0.88793613  0.77389010  0.83865232  1
  Na  Na20  1  0.66666667  0.33333333  0.66488834  1
  Na  Na21  1  0.33333333  0.66666667  0.16488834  1
  Sb  Sb22  1  0.11986356  0.77966886  0.75509107  1
  Sb  Sb23  1  0.34019470  0.11986356  0.25509107  1
  Sb  Sb24  1  0.77966886  0.65980530  0.25509107  1
  Sb  Sb25  1  0.22033114  0.34019470  0.75509107  1
  Sb  Sb26  1  0.65980530  0.88013644  0.75509107  1
  Sb  Sb27  1  0.88013644  0.22033114  0.25509107  1
