# generated using pymatgen
data_Na4B2O5
_symmetry_space_group_name_H-M   'P 1'
_cell_length_a   6.38000944
_cell_length_b   6.71092541
_cell_length_c   6.71092541
_cell_angle_alpha   74.00352784
_cell_angle_beta   74.07167143
_cell_angle_gamma   74.07167144
_symmetry_Int_Tables_number   1
_chemical_formula_structural   Na4B2O5
_chemical_formula_sum   'Na8 B4 O10'
_cell_volume   259.38711390
_cell_formula_units_Z   2
loop_
 _symmetry_equiv_pos_site_id
 _symmetry_equiv_pos_as_xyz
  1  'x, y, z'
loop_
 _atom_site_type_symbol
 _atom_site_label
 _atom_site_symmetry_multiplicity
 _atom_site_fract_x
 _atom_site_fract_y
 _atom_site_fract_z
 _atom_site_occupancy
  B  B0  1  0.83248293  0.92779388  0.25529621  1
  B  B1  1  0.66751707  0.74470379  0.07220612  1
  B  B2  1  0.16751707  0.07220612  0.74470379  1
  B  B3  1  0.33248293  0.25529621  0.92779388  1
  O  O4  1  0.25000000  0.07563369  0.92436631  1
  O  O5  1  0.75000000  0.92436631  0.07563369  1
  O  O6  1  0.45984589  0.34851855  0.74370683  1
  O  O7  1  0.04015411  0.25629317  0.65148145  1
  O  O8  1  0.78309396  0.11748835  0.31536579  1
  O  O9  1  0.71690604  0.68463421  0.88251165  1
  O  O10  1  0.21690604  0.88251165  0.68463421  1
  O  O11  1  0.28309396  0.31536579  0.11748835  1
  O  O12  1  0.95984589  0.74370683  0.34851855  1
  O  O13  1  0.54015411  0.65148145  0.25629317  1
  Na  Na14  1  0.77243305  0.03211188  0.68561189  1
  Na  Na15  1  0.72756695  0.31438811  0.96788812  1
  Na  Na16  1  0.22756695  0.96788812  0.31438811  1
  Na  Na17  1  0.27243305  0.68561189  0.03211188  1
  Na  Na18  1  0.42718426  0.32885496  0.40245098  1
  Na  Na19  1  0.07281574  0.59754902  0.67114504  1
  Na  Na20  1  0.57281574  0.67114504  0.59754902  1
  Na  Na21  1  0.92718426  0.40245098  0.32885496  1
