# generated using pymatgen
data_Pb7(ClF6)2
_symmetry_space_group_name_H-M   'P 1'
_cell_length_a   10.44164316
_cell_length_b   10.44164350
_cell_length_c   4.03498741
_cell_angle_alpha   90.00000000
_cell_angle_beta   90.00000000
_cell_angle_gamma   119.99999893
_symmetry_Int_Tables_number   1
_chemical_formula_structural   Pb7(ClF6)2
_chemical_formula_sum   'Pb7 Cl2 F12'
_cell_volume   380.98732652
_cell_formula_units_Z   1
loop_
 _symmetry_equiv_pos_site_id
 _symmetry_equiv_pos_as_xyz
  1  'x, y, z'
loop_
 _atom_site_type_symbol
 _atom_site_label
 _atom_site_symmetry_multiplicity
 _atom_site_fract_x
 _atom_site_fract_y
 _atom_site_fract_z
 _atom_site_occupancy
  Pb  Pb0  1  0.32040143  0.89480648  0.75000000  1
  Pb  Pb1  1  0.10519352  0.42559494  0.75000000  1
  Pb  Pb2  1  0.57440506  0.67959857  0.75000000  1
  Pb  Pb3  1  0.39414543  0.27836222  0.25000000  1
  Pb  Pb4  1  0.88421679  0.60585457  0.25000000  1
  Pb  Pb5  1  0.72163778  0.11578321  0.25000000  1
  Pb  Pb6  1  0.00000000  0.00000000  0.75000000  1
  Cl  Cl7  1  0.33333300  0.66666700  0.25000000  1
  Cl  Cl8  1  0.66666700  0.33333300  0.75000000  1
  F  F9  1  0.06903806  0.86522036  0.25000000  1
  F  F10  1  0.04952300  0.62874860  0.75000000  1
  F  F11  1  0.13477964  0.20381770  0.25000000  1
  F  F12  1  0.57922560  0.95047700  0.75000000  1
  F  F13  1  0.27719972  0.10177994  0.75000000  1
  F  F14  1  0.37125140  0.42077440  0.75000000  1
  F  F15  1  0.59896849  0.56636116  0.25000000  1
  F  F16  1  0.79618230  0.93096194  0.25000000  1
  F  F17  1  0.43363884  0.03260732  0.25000000  1
  F  F18  1  0.82458022  0.72280028  0.75000000  1
  F  F19  1  0.96739268  0.40103151  0.25000000  1
  F  F20  1  0.89822006  0.17541978  0.75000000  1
