# generated using pymatgen
data_K2AgBi
_symmetry_space_group_name_H-M   'P 1'
_cell_length_a   6.48468382
_cell_length_b   6.87111378
_cell_length_c   6.87111378
_cell_angle_alpha   103.51263963
_cell_angle_beta   90.00000000
_cell_angle_gamma   90.00000000
_symmetry_Int_Tables_number   1
_chemical_formula_structural   K2AgBi
_chemical_formula_sum   'K4 Ag2 Bi2'
_cell_volume   297.68132463
_cell_formula_units_Z   2
loop_
 _symmetry_equiv_pos_site_id
 _symmetry_equiv_pos_as_xyz
  1  'x, y, z'
loop_
 _atom_site_type_symbol
 _atom_site_label
 _atom_site_symmetry_multiplicity
 _atom_site_fract_x
 _atom_site_fract_y
 _atom_site_fract_z
 _atom_site_occupancy
  K  K0  1  0.25194106  0.67289536  0.02138429  1
  K  K1  1  0.75194106  0.32710464  0.97861571  1
  K  K2  1  0.24805894  0.02138429  0.67289536  1
  K  K3  1  0.74805894  0.97861571  0.32710464  1
  Ag  Ag4  1  0.00000000  0.49936675  0.50063325  1
  Ag  Ag5  1  0.50000000  0.50063325  0.49936675  1
  Bi  Bi6  1  0.25000000  0.22876746  0.22876746  1
  Bi  Bi7  1  0.75000000  0.77123254  0.77123254  1
