# generated using pymatgen
data_Sc2GeO5
_symmetry_space_group_name_H-M   'P 1'
_cell_length_a   7.64409160
_cell_length_b   7.64409126
_cell_length_c   10.76477868
_cell_angle_alpha   87.51123768
_cell_angle_beta   87.51123571
_cell_angle_gamma   87.71424307
_symmetry_Int_Tables_number   1
_chemical_formula_structural   Sc2GeO5
_chemical_formula_sum   'Sc12 Ge6 O30'
_cell_volume   627.36781583
_cell_formula_units_Z   6
loop_
 _symmetry_equiv_pos_site_id
 _symmetry_equiv_pos_as_xyz
  1  'x, y, z'
loop_
 _atom_site_type_symbol
 _atom_site_label
 _atom_site_symmetry_multiplicity
 _atom_site_fract_x
 _atom_site_fract_y
 _atom_site_fract_z
 _atom_site_occupancy
  Sc  Sc0  1  0.30404907  0.00600036  0.06155894  1
  Sc  Sc1  1  0.99399964  0.69595093  0.43844106  1
  Sc  Sc2  1  0.69595093  0.99399964  0.93844106  1
  Sc  Sc3  1  0.00600036  0.30404907  0.56155894  1
  Sc  Sc4  1  0.62999956  0.34827894  0.42942361  1
  Sc  Sc5  1  0.65172106  0.37000044  0.07057639  1
  Sc  Sc6  1  0.37000044  0.65172106  0.57057639  1
  Sc  Sc7  1  0.34827894  0.62999956  0.92942361  1
  Sc  Sc8  1  0.63928606  0.00714968  0.24539409  1
  Sc  Sc9  1  0.99285032  0.36071394  0.25460591  1
  Sc  Sc10  1  0.36071394  0.99285032  0.75460591  1
  Sc  Sc11  1  0.00714968  0.63928606  0.74539409  1
  Ge  Ge12  1  0.35653207  0.64346793  0.25000000  1
  Ge  Ge13  1  0.64346793  0.35653207  0.75000000  1
  Ge  Ge14  1  0.27436056  0.06113423  0.45615785  1
  Ge  Ge15  1  0.93886577  0.72563944  0.04384215  1
  Ge  Ge16  1  0.72563944  0.93886577  0.54384215  1
  Ge  Ge17  1  0.06113423  0.27436056  0.95615785  1
  O  O18  1  0.48163929  0.12515462  0.39589564  1
  O  O19  1  0.87484538  0.51836071  0.10410436  1
  O  O20  1  0.51836071  0.87484538  0.60410436  1
  O  O21  1  0.12515462  0.48163929  0.89589564  1
  O  O22  1  0.77797625  0.86921746  0.38787016  1
  O  O23  1  0.13078254  0.22202375  0.11212984  1
  O  O24  1  0.22202375  0.13078254  0.61212984  1
  O  O25  1  0.86921746  0.77797625  0.88787016  1
  O  O26  1  0.80111099  0.88971380  0.11345748  1
  O  O27  1  0.11028620  0.19888901  0.38654252  1
  O  O28  1  0.19888901  0.11028620  0.88654252  1
  O  O29  1  0.88971380  0.80111099  0.61345748  1
  O  O30  1  0.53672478  0.13045490  0.07539203  1
  O  O31  1  0.86954510  0.46327522  0.42460797  1
  O  O32  1  0.46327522  0.86954510  0.92460797  1
  O  O33  1  0.13045490  0.53672478  0.57539203  1
  O  O34  1  0.40606274  0.86759982  0.21943881  1
  O  O35  1  0.13240018  0.59393726  0.28056119  1
  O  O36  1  0.83812658  0.22493982  0.95390238  1
  O  O37  1  0.77506018  0.16187342  0.54609762  1
  O  O38  1  0.16187342  0.77506018  0.04609762  1
  O  O39  1  0.22493982  0.83812658  0.45390238  1
  O  O40  1  0.26242796  0.73757204  0.75000000  1
  O  O41  1  0.73757204  0.26242796  0.25000000  1
  O  O42  1  0.55986022  0.46431728  0.88551827  1
  O  O43  1  0.53568272  0.44013978  0.61448173  1
  O  O44  1  0.44013978  0.53568272  0.11448173  1
  O  O45  1  0.46431728  0.55986022  0.38551827  1
  O  O46  1  0.86759982  0.40606274  0.71943881  1
  O  O47  1  0.59393726  0.13240018  0.78056119  1
