# generated using pymatgen
data_Na14Cd2O9
_symmetry_space_group_name_H-M   'P 1'
_cell_length_a   6.84969540
_cell_length_b   6.84969541
_cell_length_c   9.52121249
_cell_angle_alpha   90.00000000
_cell_angle_beta   90.00000000
_cell_angle_gamma   120.00000003
_symmetry_Int_Tables_number   1
_chemical_formula_structural   Na14Cd2O9
_chemical_formula_sum   'Na14 Cd2 O9'
_cell_volume   386.87031598
_cell_formula_units_Z   1
loop_
 _symmetry_equiv_pos_site_id
 _symmetry_equiv_pos_as_xyz
  1  'x, y, z'
loop_
 _atom_site_type_symbol
 _atom_site_label
 _atom_site_symmetry_multiplicity
 _atom_site_fract_x
 _atom_site_fract_y
 _atom_site_fract_z
 _atom_site_occupancy
  O  O0  1  0.30535228  0.96151014  0.34025077  1
  O  O1  1  0.65615786  0.69464772  0.34025077  1
  O  O2  1  0.03848986  0.34384214  0.34025077  1
  O  O3  1  0.69464772  0.03848986  0.65974923  1
  O  O4  1  0.34384214  0.30535228  0.65974923  1
  O  O5  1  0.96151014  0.65615786  0.65974923  1
  O  O6  1  0.00000000  0.00000000  0.00000000  1
  O  O7  1  0.66666667  0.33333333  0.97518039  1
  O  O8  1  0.33333333  0.66666667  0.02481961  1
  Na  Na9  1  0.31830433  0.35933657  0.90782657  1
  Na  Na10  1  0.95896776  0.31830433  0.09217343  1
  Na  Na11  1  0.64066343  0.95896776  0.90782657  1
  Na  Na12  1  0.68764596  0.06289933  0.40938176  1
  Na  Na13  1  0.04103224  0.68169567  0.90782657  1
  Na  Na14  1  0.00000000  0.00000000  0.25287759  1
  Na  Na15  1  0.00000000  0.00000000  0.74712241  1
  Na  Na16  1  0.68169567  0.64066343  0.09217343  1
  Na  Na17  1  0.06289933  0.37525336  0.59061824  1
  Na  Na18  1  0.37525336  0.31235404  0.40938176  1
  Na  Na19  1  0.93710067  0.62474664  0.40938176  1
  Na  Na20  1  0.31235404  0.93710067  0.59061824  1
  Na  Na21  1  0.62474664  0.68764596  0.59061824  1
  Na  Na22  1  0.35933657  0.04103224  0.09217343  1
  Cd  Cd23  1  0.66666667  0.33333333  0.73951608  1
  Cd  Cd24  1  0.33333333  0.66666667  0.26048392  1
