# generated using pymatgen
data_CsNbO3
_symmetry_space_group_name_H-M   'P 1'
_cell_length_a   5.20611614
_cell_length_b   9.41493317
_cell_length_c   16.19646497
_cell_angle_alpha   90.00000000
_cell_angle_beta   90.00000000
_cell_angle_gamma   93.05334694
_symmetry_Int_Tables_number   1
_chemical_formula_structural   CsNbO3
_chemical_formula_sum   'Cs8 Nb8 O24'
_cell_volume   792.74654056
_cell_formula_units_Z   8
loop_
 _symmetry_equiv_pos_site_id
 _symmetry_equiv_pos_as_xyz
  1  'x, y, z'
loop_
 _atom_site_type_symbol
 _atom_site_label
 _atom_site_symmetry_multiplicity
 _atom_site_fract_x
 _atom_site_fract_y
 _atom_site_fract_z
 _atom_site_occupancy
  O  O0  1  0.74792335  0.37112829  0.39921277  1
  O  O1  1  0.25207665  0.12887171  0.89921277  1
  O  O2  1  0.25207665  0.62887171  0.60078723  1
  O  O3  1  0.74792335  0.87112829  0.10078723  1
  O  O4  1  0.06189294  0.54458621  0.28783105  1
  O  O5  1  0.93810706  0.95541379  0.78783105  1
  O  O6  1  0.93810706  0.45541379  0.71216895  1
  O  O7  1  0.06189294  0.04458621  0.21216895  1
  O  O8  1  0.17860360  0.73381600  0.43535909  1
  O  O9  1  0.82139640  0.76618400  0.93535909  1
  O  O10  1  0.82139640  0.26618400  0.56464091  1
  O  O11  1  0.17860360  0.23381600  0.06464091  1
  O  O12  1  0.25062853  0.45951719  0.46392185  1
  O  O13  1  0.74937147  0.04048281  0.96392185  1
  O  O14  1  0.74937147  0.54048281  0.53607815  1
  O  O15  1  0.25062853  0.95951719  0.03607815  1
  O  O16  1  0.67304476  0.17495621  0.10814282  1
  O  O17  1  0.32695524  0.32504379  0.60814282  1
  O  O18  1  0.32695524  0.82504379  0.89185718  1
  O  O19  1  0.67304476  0.67495621  0.39185718  1
  O  O20  1  0.60542802  0.35013286  0.95464966  1
  O  O21  1  0.39457198  0.14986714  0.45464966  1
  O  O22  1  0.39457198  0.64986714  0.04535034  1
  O  O23  1  0.60542802  0.85013286  0.54535034  1
  Nb  Nb24  1  0.47136045  0.68415975  0.50222629  1
  Nb  Nb25  1  0.52863955  0.81584025  0.00222629  1
  Nb  Nb26  1  0.52863955  0.31584025  0.49777371  1
  Nb  Nb27  1  0.47136045  0.18415975  0.99777371  1
  Nb  Nb28  1  0.96145494  0.55291309  0.39545649  1
  Nb  Nb29  1  0.03854506  0.94708691  0.89545649  1
  Nb  Nb30  1  0.03854506  0.44708691  0.60454351  1
  Nb  Nb31  1  0.96145494  0.05291309  0.10454351  1
  Cs  Cs32  1  0.88640496  0.01228917  0.39369629  1
  Cs  Cs33  1  0.11359504  0.48771083  0.89369629  1
  Cs  Cs34  1  0.11359504  0.98771083  0.60630371  1
  Cs  Cs35  1  0.88640496  0.51228917  0.10630371  1
  Cs  Cs36  1  0.40368047  0.79348621  0.24236805  1
  Cs  Cs37  1  0.59631953  0.70651379  0.74236805  1
  Cs  Cs38  1  0.59631953  0.20651379  0.75763195  1
  Cs  Cs39  1  0.40368047  0.29348621  0.25763195  1
