# generated using pymatgen
data_CsFeCl4
_symmetry_space_group_name_H-M   'P 1'
_cell_length_a   7.38217561
_cell_length_b   9.78693589
_cell_length_c   11.86556420
_cell_angle_alpha   90.00000000
_cell_angle_beta   90.00000000
_cell_angle_gamma   90.00000000
_symmetry_Int_Tables_number   1
_chemical_formula_structural   CsFeCl4
_chemical_formula_sum   'Cs4 Fe4 Cl16'
_cell_volume   857.27371718
_cell_formula_units_Z   4
loop_
 _symmetry_equiv_pos_site_id
 _symmetry_equiv_pos_as_xyz
  1  'x, y, z'
loop_
 _atom_site_type_symbol
 _atom_site_label
 _atom_site_symmetry_multiplicity
 _atom_site_fract_x
 _atom_site_fract_y
 _atom_site_fract_z
 _atom_site_occupancy
  Cl  Cl0  1  0.50712175  0.32740498  0.41643815  1
  Cl  Cl1  1  0.00712175  0.67259502  0.58356185  1
  Cl  Cl2  1  0.49287825  0.82740498  0.08356185  1
  Cl  Cl3  1  0.99287825  0.17259502  0.91643815  1
  Cl  Cl4  1  0.49287825  0.67259502  0.58356185  1
  Cl  Cl5  1  0.99287825  0.32740498  0.41643815  1
  Cl  Cl6  1  0.50712175  0.17259502  0.91643815  1
  Cl  Cl7  1  0.00712175  0.82740498  0.08356185  1
  Cl  Cl8  1  0.25000000  0.59324050  0.90419849  1
  Cl  Cl9  1  0.75000000  0.40675950  0.09580151  1
  Cl  Cl10  1  0.75000000  0.09324050  0.59580151  1
  Cl  Cl11  1  0.25000000  0.90675950  0.40419849  1
  Cl  Cl12  1  0.25000000  0.55011602  0.21177949  1
  Cl  Cl13  1  0.75000000  0.44988398  0.78822051  1
  Cl  Cl14  1  0.75000000  0.05011602  0.28822051  1
  Cl  Cl15  1  0.25000000  0.94988398  0.71177949  1
  Fe  Fe16  1  0.25000000  0.80514469  0.56927214  1
  Fe  Fe17  1  0.75000000  0.19485531  0.43072786  1
  Fe  Fe18  1  0.75000000  0.30514469  0.93072786  1
  Fe  Fe19  1  0.25000000  0.69485531  0.06927214  1
  Cs  Cs20  1  0.25000000  0.33443049  0.68077651  1
  Cs  Cs21  1  0.75000000  0.66556951  0.31922349  1
  Cs  Cs22  1  0.75000000  0.83443049  0.81922349  1
  Cs  Cs23  1  0.25000000  0.16556951  0.18077651  1
