# generated using pymatgen
data_Na8Ga2O7
_symmetry_space_group_name_H-M   'P 1'
_cell_length_a   8.73675902
_cell_length_b   10.15465890
_cell_length_c   11.10286664
_cell_angle_alpha   90.00000000
_cell_angle_beta   90.00000000
_cell_angle_gamma   107.61605451
_symmetry_Int_Tables_number   1
_chemical_formula_structural   Na8Ga2O7
_chemical_formula_sum   'Na32 Ga8 O28'
_cell_volume   938.84085537
_cell_formula_units_Z   4
loop_
 _symmetry_equiv_pos_site_id
 _symmetry_equiv_pos_as_xyz
  1  'x, y, z'
loop_
 _atom_site_type_symbol
 _atom_site_label
 _atom_site_symmetry_multiplicity
 _atom_site_fract_x
 _atom_site_fract_y
 _atom_site_fract_z
 _atom_site_occupancy
  O  O0  1  0.67433565  0.29930257  0.38249214  1
  O  O1  1  0.10402388  0.62243098  0.11049168  1
  O  O2  1  0.89597612  0.87756902  0.61049168  1
  O  O3  1  0.89597612  0.37756902  0.88950832  1
  O  O4  1  0.10402388  0.12243098  0.38950832  1
  O  O5  1  0.67149654  0.49692458  0.11636090  1
  O  O6  1  0.32850346  0.00307542  0.61636090  1
  O  O7  1  0.89343518  0.56805140  0.60958634  1
  O  O8  1  0.89589467  0.21704517  0.20498583  1
  O  O9  1  0.10410533  0.28295483  0.70498583  1
  O  O10  1  0.10410533  0.78295483  0.79501417  1
  O  O11  1  0.89589467  0.71704517  0.29501417  1
  O  O12  1  0.54493202  0.10716366  0.15285020  1
  O  O13  1  0.45506798  0.39283634  0.65285020  1
  O  O14  1  0.45506798  0.89283634  0.84714980  1
  O  O15  1  0.54493202  0.60716366  0.34714980  1
  O  O16  1  0.32566435  0.20069743  0.88249214  1
  O  O17  1  0.67149654  0.99692458  0.38363910  1
  O  O18  1  0.67433565  0.79930257  0.11750786  1
  O  O19  1  0.32566435  0.70069743  0.61750786  1
  O  O20  1  0.75287544  0.18425484  0.67571930  1
  O  O21  1  0.24712456  0.31574516  0.17571930  1
  O  O22  1  0.24712456  0.81574516  0.32428070  1
  O  O23  1  0.75287544  0.68425484  0.82428070  1
  O  O24  1  0.89343518  0.06805140  0.89041366  1
  O  O25  1  0.10656482  0.43194860  0.39041366  1
  O  O26  1  0.10656482  0.93194860  0.10958634  1
  O  O27  1  0.32850346  0.50307542  0.88363910  1
  Na  Na28  1  0.50127093  0.62802541  0.73166526  1
  Na  Na29  1  0.34156430  0.01873115  0.99602356  1
  Na  Na30  1  0.65843570  0.48126885  0.49602356  1
  Na  Na31  1  0.65843570  0.98126885  0.00397644  1
  Na  Na32  1  0.34156430  0.51873115  0.50397644  1
  Na  Na33  1  0.88001315  0.07567068  0.52467110  1
  Na  Na34  1  0.11998685  0.42432932  0.02467110  1
  Na  Na35  1  0.11998685  0.92432932  0.47532890  1
  Na  Na36  1  0.10740569  0.03291556  0.76037003  1
  Na  Na37  1  0.89259431  0.46708444  0.26037003  1
  Na  Na38  1  0.89259431  0.96708444  0.23962997  1
  Na  Na39  1  0.10740569  0.53291556  0.73962997  1
  Na  Na40  1  0.25512929  0.21213363  0.55468592  1
  Na  Na41  1  0.74487071  0.28786637  0.05468592  1
  Na  Na42  1  0.74487071  0.78786637  0.44531408  1
  Na  Na43  1  0.25512929  0.71213363  0.94531408  1
  Na  Na44  1  0.08464137  0.14297739  0.03921687  1
  Na  Na45  1  0.91535863  0.35702261  0.53921687  1
  Na  Na46  1  0.91535863  0.85702261  0.96078313  1
  Na  Na47  1  0.08464137  0.64297739  0.46078313  1
  Na  Na48  1  0.56879728  0.14376139  0.52956888  1
  Na  Na49  1  0.43120272  0.35623861  0.02956888  1
  Na  Na50  1  0.43120272  0.85623861  0.47043112  1
  Na  Na51  1  0.56879728  0.64376139  0.97043112  1
  Na  Na52  1  0.28568647  0.06993217  0.24992357  1
  Na  Na53  1  0.71431353  0.43006783  0.74992357  1
  Na  Na54  1  0.71431353  0.93006783  0.75007643  1
  Na  Na55  1  0.28568647  0.56993217  0.25007643  1
  Na  Na56  1  0.50127093  0.12802541  0.76833474  1
  Na  Na57  1  0.49872907  0.37197459  0.26833474  1
  Na  Na58  1  0.49872907  0.87197459  0.23166526  1
  Na  Na59  1  0.88001315  0.57567068  0.97532890  1
  Ga  Ga60  1  0.30930388  0.84653915  0.71447172  1
  Ga  Ga61  1  0.69069612  0.65346085  0.21447172  1
  Ga  Ga62  1  0.69069612  0.15346085  0.28552828  1
  Ga  Ga63  1  0.30930388  0.34653915  0.78552828  1
  Ga  Ga64  1  0.90692424  0.72611851  0.70147876  1
  Ga  Ga65  1  0.09307576  0.77388149  0.20147876  1
  Ga  Ga66  1  0.09307576  0.27388149  0.29852124  1
  Ga  Ga67  1  0.90692424  0.22611851  0.79852124  1
