# generated using pymatgen
data_Sr2P6O17
_symmetry_space_group_name_H-M   'P 1'
_cell_length_a   7.30637676
_cell_length_b   7.34633948
_cell_length_c   13.53360544
_cell_angle_alpha   90.00000000
_cell_angle_beta   90.00000000
_cell_angle_gamma   105.37077545
_symmetry_Int_Tables_number   1
_chemical_formula_structural   Sr2P6O17
_chemical_formula_sum   'Sr4 P12 O34'
_cell_volume   700.43451013
_cell_formula_units_Z   2
loop_
 _symmetry_equiv_pos_site_id
 _symmetry_equiv_pos_as_xyz
  1  'x, y, z'
loop_
 _atom_site_type_symbol
 _atom_site_label
 _atom_site_symmetry_multiplicity
 _atom_site_fract_x
 _atom_site_fract_y
 _atom_site_fract_z
 _atom_site_occupancy
  O  O0  1  0.74874743  0.78814058  0.31187988  1
  O  O1  1  0.25125257  0.21185942  0.81187988  1
  O  O2  1  0.76254700  0.46133254  0.23845368  1
  O  O3  1  0.23745300  0.53866746  0.73845368  1
  O  O4  1  0.64738687  0.71247802  0.14005095  1
  O  O5  1  0.35261313  0.28752198  0.64005095  1
  O  O6  1  0.51902165  0.43243809  0.02310833  1
  O  O7  1  0.48097835  0.56756191  0.52310833  1
  O  O8  1  0.87235687  0.61118325  0.03064971  1
  O  O9  1  0.12764313  0.38881675  0.53064971  1
  O  O10  1  0.13820286  0.48483604  0.96852403  1
  O  O11  1  0.86179714  0.51516396  0.46852403  1
  O  O12  1  0.07962920  0.79437030  0.89500742  1
  O  O13  1  0.92037080  0.20562970  0.39500742  1
  O  O14  1  0.84690558  0.46730275  0.86363444  1
  O  O15  1  0.15309442  0.53269725  0.36363444  1
  O  O16  1  0.36790321  0.23271431  0.45706179  1
  O  O17  1  0.63209679  0.76728569  0.95706179  1
  O  O18  1  0.16794040  0.91732550  0.52527061  1
  O  O19  1  0.83205960  0.08267450  0.02527061  1
  O  O20  1  0.50482433  0.95293595  0.44802021  1
  O  O21  1  0.49517567  0.04706405  0.94802021  1
  O  O22  1  0.21188375  0.96449897  0.34387887  1
  O  O23  1  0.78811625  0.03550103  0.84387887  1
  O  O24  1  0.10880833  0.98825116  0.16785976  1
  O  O25  1  0.89119167  0.01174884  0.66785976  1
  O  O26  1  0.46589691  0.05524540  0.20691637  1
  O  O27  1  0.53410309  0.94475460  0.70691637  1
  O  O28  1  0.24688445  0.72550649  0.21219497  1
  O  O29  1  0.75311555  0.27449351  0.71219497  1
  O  O30  1  0.44972174  0.52409915  0.27947054  1
  O  O31  1  0.55027826  0.47590085  0.77947054  1
  O  O32  1  0.13864353  0.37050851  0.19291827  1
  O  O33  1  0.86135647  0.62949149  0.69291827  1
  P  P34  1  0.67043928  0.61727366  0.24901344  1
  P  P35  1  0.32956072  0.38272634  0.74901344  1
  P  P36  1  0.65740159  0.61689144  0.03511264  1
  P  P37  1  0.34259841  0.38310856  0.53511264  1
  P  P38  1  0.01021804  0.59934931  0.93691163  1
  P  P39  1  0.98978196  0.40065069  0.43691163  1
  P  P40  1  0.76148681  0.47206244  0.75723200  1
  P  P41  1  0.23851319  0.52793756  0.25723200  1
  P  P42  1  0.73383505  0.04929073  0.72891148  1
  P  P43  1  0.26616495  0.95070927  0.22891148  1
  P  P44  1  0.68048474  1.00081375  0.95022264  1
  P  P45  1  0.31951526  -0.00081375  0.45022264  1
  Sr  Sr46  1  0.81464616  0.12539783  0.21751091  1
  Sr  Sr47  1  0.18535384  0.87460217  0.71751091  1
  Sr  Sr48  1  0.21675228  0.17579743  0.00038544  1
  Sr  Sr49  1  0.78324772  0.82420257  0.50038544  1
