# generated using pymatgen
data_LiFe2(CO3)4
_symmetry_space_group_name_H-M   'P 1'
_cell_length_a   6.74919201
_cell_length_b   7.69644509
_cell_length_c   5.21298093
_cell_angle_alpha   89.62576112
_cell_angle_beta   114.05600700
_cell_angle_gamma   91.11542447
_symmetry_Int_Tables_number   1
_chemical_formula_structural   LiFe2(CO3)4
_chemical_formula_sum   'Li1 Fe2 C4 O12'
_cell_volume   247.22146864
_cell_formula_units_Z   1
loop_
 _symmetry_equiv_pos_site_id
 _symmetry_equiv_pos_as_xyz
  1  'x, y, z'
loop_
 _atom_site_type_symbol
 _atom_site_label
 _atom_site_symmetry_multiplicity
 _atom_site_fract_x
 _atom_site_fract_y
 _atom_site_fract_z
 _atom_site_occupancy
  Li  Li0  1  0.81471020  0.56207549  0.61059586  1
  Fe  Fe1  1  0.00390646  0.99889250  0.00525714  1
  Fe  Fe2  1  0.48401643  0.50067422  0.97846206  1
  C  C3  1  0.12489788  0.26561581  0.86546708  1
  C  C4  1  0.37662628  0.76420314  0.13898422  1
  C  C5  1  0.63382152  0.24179912  0.86413095  1
  C  C6  1  0.87013488  0.73124154  0.14179340  1
  O  O7  1  0.08308095  0.12854165  0.70924472  1
  O  O8  1  0.17543046  0.41494051  0.78783629  1
  O  O9  1  0.38817595  0.74399874  0.89541805  1
  O  O10  1  0.10644227  0.24888812  0.10353392  1
  O  O11  1  0.30804378  0.90243664  0.20325419  1
  O  O12  1  0.43982966  0.62998182  0.30448765  1
  O  O13  1  0.60807828  0.38455125  0.71545464  1
  O  O14  1  0.69974770  0.10048998  0.80665383  1
  O  O15  1  0.88964570  0.74193326  0.90131785  1
  O  O16  1  0.58013827  0.25709231  0.07773518  1
  O  O17  1  0.80215352  0.59089227  0.21926038  1
  O  O18  1  0.92263681  0.86965463  0.29481758  1
