# generated using pymatgen
data_Li8Pb3
_symmetry_space_group_name_H-M   'P 1'
_cell_length_a   4.76949964
_cell_length_b   4.76209806
_cell_length_c   11.09344400
_cell_angle_alpha   102.26256102
_cell_angle_beta   90.00000000
_cell_angle_gamma   120.05142811
_symmetry_Int_Tables_number   1
_chemical_formula_structural   Li8Pb3
_chemical_formula_sum   'Li8 Pb3'
_cell_volume   211.42600538
_cell_formula_units_Z   1
loop_
 _symmetry_equiv_pos_site_id
 _symmetry_equiv_pos_as_xyz
  1  'x, y, z'
loop_
 _atom_site_type_symbol
 _atom_site_label
 _atom_site_symmetry_multiplicity
 _atom_site_fract_x
 _atom_site_fract_y
 _atom_site_fract_z
 _atom_site_occupancy
  Li  Li0  1  0.91175981  0.82351963  0.73414225  1
  Li  Li1  1  0.08824019  0.17648037  0.26585775  1
  Li  Li2  1  0.82111788  0.64223575  0.46334217  1
  Li  Li3  1  0.36186866  0.72373733  0.08588116  1
  Li  Li4  1  0.63813134  0.27626267  0.91411884  1
  Li  Li5  1  0.27304285  0.54608570  0.81960837  1
  Li  Li6  1  0.72695715  0.45391430  0.18039163  1
  Li  Li7  1  0.17888212  0.35776425  0.53665783  1
  Pb  Pb8  1  0.54789099  0.09578199  0.64312163  1
  Pb  Pb9  1  0.45210901  0.90421801  0.35687837  1
  Pb  Pb10  1  0.00000000  0.00000000  0.00000000  1
