# generated using pymatgen
data_Ce2SeF4
_symmetry_space_group_name_H-M   'P 1'
_cell_length_a   8.06849328
_cell_length_b   8.06849328
_cell_length_c   8.06849328
_cell_angle_alpha   29.86617164
_cell_angle_beta   29.86617161
_cell_angle_gamma   29.86617163
_symmetry_Int_Tables_number   1
_chemical_formula_structural   Ce2SeF4
_chemical_formula_sum   'Ce2 Se1 F4'
_cell_volume   115.35454083
_cell_formula_units_Z   1
loop_
 _symmetry_equiv_pos_site_id
 _symmetry_equiv_pos_as_xyz
  1  'x, y, z'
loop_
 _atom_site_type_symbol
 _atom_site_label
 _atom_site_symmetry_multiplicity
 _atom_site_fract_x
 _atom_site_fract_y
 _atom_site_fract_z
 _atom_site_occupancy
  F  F0  1  0.86049930  0.86049930  0.86049930  1
  F  F1  1  0.13950070  0.13950070  0.13950070  1
  F  F2  1  0.56942632  0.56942632  0.56942632  1
  F  F3  1  0.43057368  0.43057368  0.43057368  1
  Se  Se4  1  0.00000000  0.00000000  0.00000000  1
  Ce  Ce5  1  0.75619834  0.75619834  0.75619834  1
  Ce  Ce6  1  0.24380166  0.24380166  0.24380166  1
