# generated using pymatgen
data_Be(PO3)2
_symmetry_space_group_name_H-M   'P 1'
_cell_length_a   4.96265599
_cell_length_b   7.07485679
_cell_length_c   13.08094377
_cell_angle_alpha   90.00000000
_cell_angle_beta   90.00000000
_cell_angle_gamma   107.58670969
_symmetry_Int_Tables_number   1
_chemical_formula_structural   Be(PO3)2
_chemical_formula_sum   'Be4 P8 O24'
_cell_volume   437.80692645
_cell_formula_units_Z   4
loop_
 _symmetry_equiv_pos_site_id
 _symmetry_equiv_pos_as_xyz
  1  'x, y, z'
loop_
 _atom_site_type_symbol
 _atom_site_label
 _atom_site_symmetry_multiplicity
 _atom_site_fract_x
 _atom_site_fract_y
 _atom_site_fract_z
 _atom_site_occupancy
  Be  Be0  1  0.11923552  0.76643599  0.06725869  1
  Be  Be1  1  0.38076448  0.73356401  0.56725869  1
  Be  Be2  1  0.88076448  0.23356401  0.93274131  1
  Be  Be3  1  0.61923552  0.26643599  0.43274131  1
  O  O4  1  0.03015504  0.85169163  0.76401919  1
  O  O5  1  0.35064018  0.14050531  0.36405000  1
  O  O6  1  0.14935982  0.35949469  0.86405000  1
  O  O7  1  0.64935982  0.85949469  0.63595000  1
  O  O8  1  0.85064018  0.64050531  0.13595000  1
  O  O9  1  0.86931298  0.16323281  0.42343455  1
  O  O10  1  0.63068702  0.33676719  0.92343455  1
  O  O11  1  0.13068702  0.83676719  0.57656545  1
  O  O12  1  0.46984496  0.64830837  0.26401919  1
  O  O13  1  0.57183986  0.65259105  0.84501913  1
  O  O14  1  0.53015504  0.35169163  0.73598081  1
  O  O15  1  0.96984496  0.14830837  0.23598081  1
  O  O16  1  0.42816014  0.34740895  0.15498087  1
  O  O17  1  0.07183986  0.15259105  0.65498087  1
  O  O18  1  0.73867669  0.49136118  0.38747595  1
  O  O19  1  0.92816014  0.84740895  0.34501913  1
  O  O20  1  0.96868978  0.23153233  0.05221816  1
  O  O21  1  0.76132331  0.00863882  0.88747595  1
  O  O22  1  0.26132331  0.50863882  0.61252405  1
  O  O23  1  0.23867669  0.99136118  0.11252405  1
  O  O24  1  0.46868978  0.73153233  0.44778184  1
  O  O25  1  0.03131022  0.76846767  0.94778184  1
  O  O26  1  0.53131022  0.26846767  0.55221816  1
  O  O27  1  0.36931298  0.66323281  0.07656545  1
  P  P28  1  0.14574499  0.17119703  0.13039137  1
  P  P29  1  0.03807493  0.08465834  0.34915400  1
  P  P30  1  0.46192507  0.41534166  0.84915400  1
  P  P31  1  0.96192507  0.91534166  0.65084600  1
  P  P32  1  0.53807493  0.58465834  0.15084600  1
  P  P33  1  0.64574499  0.67119703  0.36960863  1
  P  P34  1  0.85425501  0.82880297  0.86960863  1
  P  P35  1  0.35425501  0.32880297  0.63039137  1
