# generated using pymatgen
data_U3Fe2Si7
_symmetry_space_group_name_H-M   'P 1'
_cell_length_a   3.99471625
_cell_length_b   4.02515464
_cell_length_c   12.27028143
_cell_angle_alpha   90.00000000
_cell_angle_beta   99.36830248
_cell_angle_gamma   90.00000000
_symmetry_Int_Tables_number   1
_chemical_formula_structural   U3Fe2Si7
_chemical_formula_sum   'U3 Fe2 Si7'
_cell_volume   194.66666715
_cell_formula_units_Z   1
loop_
 _symmetry_equiv_pos_site_id
 _symmetry_equiv_pos_as_xyz
  1  'x, y, z'
loop_
 _atom_site_type_symbol
 _atom_site_label
 _atom_site_symmetry_multiplicity
 _atom_site_fract_x
 _atom_site_fract_y
 _atom_site_fract_z
 _atom_site_occupancy
  Si  Si0  1  0.22183189  0.50000000  0.44366378  1
  Si  Si1  1  0.77816811  0.50000000  0.55633622  1
  Si  Si2  1  0.08656898  0.00000000  0.17313795  1
  Si  Si3  1  0.91343102  0.00000000  0.82686205  1
  Si  Si4  1  0.41399127  0.50000000  0.82798253  1
  Si  Si5  1  0.50000000  0.00000000  0.00000000  1
  Si  Si6  1  0.58600873  0.50000000  0.17201747  1
  Fe  Fe7  1  0.12772854  0.50000000  0.25545708  1
  Fe  Fe8  1  0.87227146  0.50000000  0.74454292  1
  U  U9  1  0.00000000  0.50000000  0.00000000  1
  U  U10  1  0.31515371  0.00000000  0.63030742  1
  U  U11  1  0.68484629  0.00000000  0.36969258  1
