# generated using pymatgen
data_Na2PbO2
_symmetry_space_group_name_H-M   'P 1'
_cell_length_a   6.05667073
_cell_length_b   7.02271914
_cell_length_c   17.17160853
_cell_angle_alpha   90.00000000
_cell_angle_beta   90.00000000
_cell_angle_gamma   90.00000000
_symmetry_Int_Tables_number   1
_chemical_formula_structural   Na2PbO2
_chemical_formula_sum   'Na16 Pb8 O16'
_cell_volume   730.38230509
_cell_formula_units_Z   8
loop_
 _symmetry_equiv_pos_site_id
 _symmetry_equiv_pos_as_xyz
  1  'x, y, z'
loop_
 _atom_site_type_symbol
 _atom_site_label
 _atom_site_symmetry_multiplicity
 _atom_site_fract_x
 _atom_site_fract_y
 _atom_site_fract_z
 _atom_site_occupancy
  O  O0  1  0.56297860  0.14901126  0.91352542  1
  O  O1  1  0.06297860  0.35098874  0.58647458  1
  O  O2  1  0.93702140  0.14901126  0.08647458  1
  O  O3  1  0.43702140  0.35098874  0.41352542  1
  O  O4  1  0.43702140  0.85098874  0.08647458  1
  O  O5  1  0.93702140  0.64901126  0.41352542  1
  O  O6  1  0.06297860  0.85098874  0.91352542  1
  O  O7  1  0.56297860  0.64901126  0.58647458  1
  O  O8  1  0.88928112  0.10396312  0.40308392  1
  O  O9  1  0.38928112  0.39603688  0.09691608  1
  O  O10  1  0.38928112  0.89603688  0.40308392  1
  O  O11  1  0.88928112  0.60396312  0.09691608  1
  O  O12  1  0.11071888  0.89603688  0.59691608  1
  O  O13  1  0.61071888  0.60396312  0.90308392  1
  O  O14  1  0.61071888  0.10396312  0.59691608  1
  O  O15  1  0.11071888  0.39603688  0.90308392  1
  Na  Na16  1  0.91589724  0.62497445  0.63356568  1
  Na  Na17  1  0.41589724  0.87502555  0.86643432  1
  Na  Na18  1  0.58410276  0.62497445  0.36643432  1
  Na  Na19  1  0.08410276  0.87502555  0.13356568  1
  Na  Na20  1  0.08410276  0.37502555  0.36643432  1
  Na  Na21  1  0.58410276  0.12497445  0.13356568  1
  Na  Na22  1  0.41589724  0.37502555  0.63356568  1
  Na  Na23  1  0.91589724  0.12497445  0.86643432  1
  Na  Na24  1  0.25000000  0.12267979  0.50000000  1
  Na  Na25  1  0.75000000  0.37732021  0.00000000  1
  Na  Na26  1  0.75000000  0.35756295  0.50000000  1
  Na  Na27  1  0.25000000  0.14243705  0.00000000  1
  Na  Na28  1  0.25000000  0.64243705  0.50000000  1
  Na  Na29  1  0.75000000  0.85756295  0.00000000  1
  Na  Na30  1  0.75000000  0.87732021  0.50000000  1
  Na  Na31  1  0.25000000  0.62267979  0.00000000  1
  Pb  Pb32  1  0.93328634  0.13351093  0.66214321  1
  Pb  Pb33  1  0.43328634  0.36648907  0.83785679  1
  Pb  Pb34  1  0.56671366  0.13351093  0.33785679  1
  Pb  Pb35  1  0.06671366  0.36648907  0.16214321  1
  Pb  Pb36  1  0.06671366  0.86648907  0.33785679  1
  Pb  Pb37  1  0.56671366  0.63351093  0.16214321  1
  Pb  Pb38  1  0.43328634  0.86648907  0.66214321  1
  Pb  Pb39  1  0.93328634  0.63351093  0.83785679  1
