# generated using pymatgen
data_KIn2F7
_symmetry_space_group_name_H-M   'P 1'
_cell_length_a   6.76613711
_cell_length_b   8.35054759
_cell_length_c   11.01815293
_cell_angle_alpha   90.00000000
_cell_angle_beta   89.97634166
_cell_angle_gamma   90.00000000
_symmetry_Int_Tables_number   1
_chemical_formula_structural   KIn2F7
_chemical_formula_sum   'K4 In8 F28'
_cell_volume   622.53605392
_cell_formula_units_Z   4
loop_
 _symmetry_equiv_pos_site_id
 _symmetry_equiv_pos_as_xyz
  1  'x, y, z'
loop_
 _atom_site_type_symbol
 _atom_site_label
 _atom_site_symmetry_multiplicity
 _atom_site_fract_x
 _atom_site_fract_y
 _atom_site_fract_z
 _atom_site_occupancy
  K  K0  1  0.24589999  0.75000000  0.74717092  1
  K  K1  1  0.75410001  0.25000000  0.25282908  1
  K  K2  1  0.75170139  0.75000000  0.25123791  1
  K  K3  1  0.24829861  0.25000000  0.74876209  1
  In  In4  1  0.74970106  0.50283127  0.94221721  1
  In  In5  1  0.25029894  0.00283127  0.05778279  1
  In  In6  1  0.25029894  0.49716873  0.05778279  1
  In  In7  1  0.74970106  0.99716873  0.94221721  1
  In  In8  1  0.74977101  0.99713736  0.55848684  1
  In  In9  1  0.25022899  0.49713736  0.44151316  1
  In  In10  1  0.25022899  0.00286264  0.44151316  1
  In  In11  1  0.74977101  0.50286264  0.55848684  1
  F  F12  1  0.06105153  0.52134905  0.89445509  1
  F  F13  1  0.93894847  0.02134905  0.10554491  1
  F  F14  1  0.93894847  0.47865095  0.10554491  1
  F  F15  1  0.06105153  0.97865095  0.89445509  1
  F  F16  1  0.43835386  0.52624218  0.89514770  1
  F  F17  1  0.56164614  0.02624218  0.10485230  1
  F  F18  1  0.56164614  0.47375782  0.10485230  1
  F  F19  1  0.43835386  0.97375782  0.89514770  1
  F  F20  1  0.06107510  0.50787321  0.60685836  1
  F  F21  1  0.93892490  0.00787321  0.39314164  1
  F  F22  1  0.93892490  0.49212679  0.39314164  1
  F  F23  1  0.06107510  0.99212679  0.60685836  1
  F  F24  1  0.75116571  0.75000000  0.98929119  1
  F  F25  1  0.24883429  0.25000000  0.01070881  1
  F  F26  1  0.25178372  0.75000000  0.08603979  1
  F  F27  1  0.74821628  0.25000000  0.91396021  1
  F  F28  1  0.75108016  0.75000000  0.52142262  1
  F  F29  1  0.24891984  0.25000000  0.47857738  1
  F  F30  1  0.25044207  0.75000000  0.43204997  1
  F  F31  1  0.74955793  0.25000000  0.56795003  1
  F  F32  1  0.74969284  0.95817926  0.75024668  1
  F  F33  1  0.25030716  0.45817926  0.24975332  1
  F  F34  1  0.25030716  0.04182074  0.24975332  1
  F  F35  1  0.74969284  0.54182074  0.75024668  1
  F  F36  1  0.43830567  0.99135852  0.60679332  1
  F  F37  1  0.56169433  0.49135852  0.39320668  1
  F  F38  1  0.56169433  0.00864148  0.39320668  1
  F  F39  1  0.43830567  0.50864148  0.60679332  1
