# generated using pymatgen
data_ReCl5
_symmetry_space_group_name_H-M   'P 1'
_cell_length_a   9.55781293
_cell_length_b   12.35824265
_cell_length_c   12.87671864
_cell_angle_alpha   90.00000000
_cell_angle_beta   109.81154377
_cell_angle_gamma   90.00000000
_symmetry_Int_Tables_number   1
_chemical_formula_structural   ReCl5
_chemical_formula_sum   'Re8 Cl40'
_cell_volume   1430.94694080
_cell_formula_units_Z   8
loop_
 _symmetry_equiv_pos_site_id
 _symmetry_equiv_pos_as_xyz
  1  'x, y, z'
loop_
 _atom_site_type_symbol
 _atom_site_label
 _atom_site_symmetry_multiplicity
 _atom_site_fract_x
 _atom_site_fract_y
 _atom_site_fract_z
 _atom_site_occupancy
  Cl  Cl0  1  0.28703674  0.26836953  0.64408269  1
  Cl  Cl1  1  0.71296326  0.76836953  0.85591731  1
  Cl  Cl2  1  0.71296326  0.73163047  0.35591731  1
  Cl  Cl3  1  0.28703674  0.23163047  0.14408269  1
  Cl  Cl4  1  0.09387551  0.76681225  0.95287284  1
  Cl  Cl5  1  0.90612449  0.26681225  0.54712716  1
  Cl  Cl6  1  0.90612449  0.23318775  0.04712716  1
  Cl  Cl7  1  0.09387551  0.73318775  0.45287284  1
  Cl  Cl8  1  0.09267643  0.01854670  0.16488812  1
  Cl  Cl9  1  0.90732357  0.51854670  0.33511188  1
  Cl  Cl10  1  0.90732357  0.98145330  0.83511188  1
  Cl  Cl11  1  0.09267643  0.48145330  0.66488812  1
  Cl  Cl12  1  0.28210938  0.01880116  0.43129442  1
  Cl  Cl13  1  0.71789062  0.51880116  0.06870558  1
  Cl  Cl14  1  0.71789062  0.98119884  0.56870558  1
  Cl  Cl15  1  0.28210938  0.48119884  0.93129442  1
  Cl  Cl16  1  0.28510775  0.51653901  0.43069737  1
  Cl  Cl17  1  0.71489225  0.01653901  0.06930263  1
  Cl  Cl18  1  0.71489225  0.48346099  0.56930263  1
  Cl  Cl19  1  0.28510775  0.98346099  0.93069737  1
  Cl  Cl20  1  0.53127163  0.51039522  0.24150883  1
  Cl  Cl21  1  0.46872837  0.01039522  0.25849117  1
  Cl  Cl22  1  0.46872837  0.48960478  0.75849117  1
  Cl  Cl23  1  0.53127163  0.98960478  0.74150883  1
  Cl  Cl24  1  0.09539707  0.52141620  0.16441905  1
  Cl  Cl25  1  0.90460293  0.02141620  0.33558095  1
  Cl  Cl26  1  0.90460293  0.47858380  0.83558095  1
  Cl  Cl27  1  0.09539707  0.97858380  0.66441905  1
  Cl  Cl28  1  0.09596028  0.23412353  0.31224593  1
  Cl  Cl29  1  0.90403972  0.73412353  0.18775407  1
  Cl  Cl30  1  0.90403972  0.76587647  0.68775407  1
  Cl  Cl31  1  0.09596028  0.26587647  0.81224593  1
  Cl  Cl32  1  0.47397851  0.23354297  0.41021473  1
  Cl  Cl33  1  0.52602149  0.73354297  0.08978527  1
  Cl  Cl34  1  0.52602149  0.76645703  0.58978527  1
  Cl  Cl35  1  0.47397851  0.26645703  0.91021473  1
  Cl  Cl36  1  0.28213429  0.73963100  0.28054350  1
  Cl  Cl37  1  0.71786571  0.23963100  0.21945650  1
  Cl  Cl38  1  0.71786571  0.26036900  0.71945650  1
  Cl  Cl39  1  0.28213429  0.76036900  0.78054350  1
  Re  Re40  1  0.88436174  0.37235467  0.68617295  1
  Re  Re41  1  0.11563826  0.87235467  0.81382705  1
  Re  Re42  1  0.11563826  0.62764533  0.31382705  1
  Re  Re43  1  0.88436174  0.12764533  0.18617295  1
  Re  Re44  1  0.30398448  0.37602996  0.79206690  1
  Re  Re45  1  0.69601552  0.87602996  0.70793310  1
  Re  Re46  1  0.69601552  0.62397004  0.20793310  1
  Re  Re47  1  0.30398448  0.12397004  0.29206690  1
