# generated using pymatgen
data_LiP5W3O19
_symmetry_space_group_name_H-M   'P 1'
_cell_length_a   8.77771355
_cell_length_b   8.77771355
_cell_length_c   6.55686458
_cell_angle_alpha   81.19642080
_cell_angle_beta   98.80357920
_cell_angle_gamma   66.24249400
_symmetry_Int_Tables_number   1
_chemical_formula_structural   LiP5W3O19
_chemical_formula_sum   'Li1 P5 W3 O19'
_cell_volume   443.87588861
_cell_formula_units_Z   1
loop_
 _symmetry_equiv_pos_site_id
 _symmetry_equiv_pos_as_xyz
  1  'x, y, z'
loop_
 _atom_site_type_symbol
 _atom_site_label
 _atom_site_symmetry_multiplicity
 _atom_site_fract_x
 _atom_site_fract_y
 _atom_site_fract_z
 _atom_site_occupancy
  Li  Li0  1  0.90536000  0.09464000  0.46647477  1
  P  P1  1  0.32291285  0.67708715  0.69563998  1
  P  P2  1  0.39314770  0.31048812  0.27200895  1
  P  P3  1  0.68951188  0.60685230  0.27200895  1
  P  P4  1  0.18774972  0.18500943  0.00378989  1
  P  P5  1  0.81499057  0.81225028  0.00378989  1
  W  W6  1  0.23763666  0.76236334  0.15852179  1
  W  W7  1  0.50615050  0.24222426  0.82021168  1
  W  W8  1  0.75777574  0.49384950  0.82021168  1
  O  O9  1  0.21796928  0.78203072  0.83994493  1
  O  O10  1  0.21864918  0.78135082  0.46409746  1
  O  O11  1  0.67753186  0.98707584  0.88326752  1
  O  O12  1  0.01292416  0.32246814  0.88326752  1
  O  O13  1  0.32411578  0.49944729  0.73406717  1
  O  O14  1  0.50055271  0.67588422  0.73406717  1
  O  O15  1  0.49502159  0.70622021  0.22389831  1
  O  O16  1  0.29377979  0.50497741  0.22389831  1
  O  O17  1  0.31598621  0.16289480  0.86432471  1
  O  O18  1  0.83710520  0.68401379  0.86432471  1
  O  O19  1  0.75642619  0.75023523  0.21055650  1
  O  O20  1  0.24976477  0.24357381  0.21055650  1
  O  O21  1  0.47705655  0.22494845  0.50493291  1
  O  O22  1  0.77505155  0.52294345  0.50493291  1
  O  O23  1  0.67467542  0.32532458  0.80470000  1
  O  O24  1  0.97813268  0.82513868  0.09623186  1
  O  O25  1  0.17486132  0.02186732  0.09623186  1
  O  O26  1  0.53073925  0.24470011  0.14625053  1
  O  O27  1  0.75529989  0.46926075  0.14625053  1
