# generated using pymatgen
data_PaBr5
_symmetry_space_group_name_H-M   'P 1'
_cell_length_a   9.25292041
_cell_length_b   9.66663956
_cell_length_c   12.10646034
_cell_angle_alpha   90.00000000
_cell_angle_beta   90.00000000
_cell_angle_gamma   90.53794306
_symmetry_Int_Tables_number   1
_chemical_formula_structural   PaBr5
_chemical_formula_sum   'Pa4 Br20'
_cell_volume   1082.81033704
_cell_formula_units_Z   4
loop_
 _symmetry_equiv_pos_site_id
 _symmetry_equiv_pos_as_xyz
  1  'x, y, z'
loop_
 _atom_site_type_symbol
 _atom_site_label
 _atom_site_symmetry_multiplicity
 _atom_site_fract_x
 _atom_site_fract_y
 _atom_site_fract_z
 _atom_site_occupancy
  Br  Br0  1  0.54454615  0.36731107  0.85067874  1
  Br  Br1  1  0.95545385  0.13268893  0.35067874  1
  Br  Br2  1  0.45545385  0.63268893  0.14932126  1
  Br  Br3  1  0.04454615  0.86731107  0.64932126  1
  Br  Br4  1  0.96209275  0.13178374  0.89267269  1
  Br  Br5  1  0.53790725  0.36821626  0.39267269  1
  Br  Br6  1  0.03790725  0.86821626  0.10732731  1
  Br  Br7  1  0.46209275  0.63178374  0.60732731  1
  Br  Br8  1  0.12942168  0.58226869  0.87682337  1
  Br  Br9  1  0.37057832  0.91773131  0.37682337  1
  Br  Br10  1  0.87057832  0.41773131  0.12317663  1
  Br  Br11  1  0.62942168  0.08226869  0.62317663  1
  Br  Br12  1  0.77028764  0.77235267  0.87362442  1
  Br  Br13  1  0.72971236  0.72764733  0.37362442  1
  Br  Br14  1  0.22971236  0.22764733  0.12637558  1
  Br  Br15  1  0.27028764  0.27235267  0.62637558  1
  Br  Br16  1  0.32287166  0.93081874  0.87796113  1
  Br  Br17  1  0.17712834  0.56918126  0.37796113  1
  Br  Br18  1  0.67712834  0.06918126  0.12203887  1
  Br  Br19  1  0.82287166  0.43081874  0.62203887  1
  Pa  Pa20  1  0.54874792  0.34485504  0.63214743  1
  Pa  Pa21  1  0.95125208  0.15514496  0.13214743  1
  Pa  Pa22  1  0.45125208  0.65514496  0.36785257  1
  Pa  Pa23  1  0.04874792  0.84485504  0.86785257  1
