# generated using pymatgen
data_AuCl3
_symmetry_space_group_name_H-M   'P 1'
_cell_length_a   6.92981293
_cell_length_b   7.11072077
_cell_length_c   11.90990291
_cell_angle_alpha   90.00000000
_cell_angle_beta   90.00000000
_cell_angle_gamma   115.09861055
_symmetry_Int_Tables_number   1
_chemical_formula_structural   AuCl3
_chemical_formula_sum   'Au4 Cl12'
_cell_volume   531.45896874
_cell_formula_units_Z   4
loop_
 _symmetry_equiv_pos_site_id
 _symmetry_equiv_pos_as_xyz
  1  'x, y, z'
loop_
 _atom_site_type_symbol
 _atom_site_label
 _atom_site_symmetry_multiplicity
 _atom_site_fract_x
 _atom_site_fract_y
 _atom_site_fract_z
 _atom_site_occupancy
  Cl  Cl0  1  0.86421236  0.82759547  0.34576174  1
  Cl  Cl1  1  0.63578764  0.17240453  0.84576174  1
  Cl  Cl2  1  0.13578764  0.17240453  0.65423826  1
  Cl  Cl3  1  0.36421236  0.82759547  0.15423826  1
  Cl  Cl4  1  0.06044607  0.24506129  0.00470015  1
  Cl  Cl5  1  0.43955393  0.75493871  0.50470015  1
  Cl  Cl6  1  0.93955393  0.75493871  0.99529985  1
  Cl  Cl7  1  0.56044607  0.24506129  0.49529985  1
  Cl  Cl8  1  0.48476036  0.32262408  0.16492913  1
  Cl  Cl9  1  1.01523964  0.67737592  0.66492913  1
  Cl  Cl10  1  0.51523964  0.67737592  0.83507087  1
  Cl  Cl11  1  -0.01523964  0.32262408  0.33507087  1
  Au  Au12  1  0.72199998  0.03982282  0.41609896  1
  Au  Au13  1  0.77800002  0.96017718  0.91609896  1
  Au  Au14  1  0.27800002  0.96017718  0.58390104  1
  Au  Au15  1  0.22199998  0.03982282  0.08390104  1
