# generated using pymatgen
data_Cs3Sb2Cl9
_symmetry_space_group_name_H-M   'P 1'
_cell_length_a   7.79652839
_cell_length_b   7.79652839
_cell_length_c   9.53674807
_cell_angle_alpha   90.00000000
_cell_angle_beta   90.00000000
_cell_angle_gamma   119.99999996
_symmetry_Int_Tables_number   1
_chemical_formula_structural   Cs3Sb2Cl9
_chemical_formula_sum   'Cs3 Sb2 Cl9'
_cell_volume   502.03439397
_cell_formula_units_Z   1
loop_
 _symmetry_equiv_pos_site_id
 _symmetry_equiv_pos_as_xyz
  1  'x, y, z'
loop_
 _atom_site_type_symbol
 _atom_site_label
 _atom_site_symmetry_multiplicity
 _atom_site_fract_x
 _atom_site_fract_y
 _atom_site_fract_z
 _atom_site_occupancy
  Cl  Cl0  1  0.82225788  0.17774212  0.32846502  1
  Cl  Cl1  1  0.82225788  0.64451576  0.32846502  1
  Cl  Cl2  1  0.35548424  0.17774212  0.32846502  1
  Cl  Cl3  1  0.64451576  0.82225788  0.67153498  1
  Cl  Cl4  1  0.17774212  0.35548424  0.67153498  1
  Cl  Cl5  1  0.50000000  0.00000000  0.00000000  1
  Cl  Cl6  1  0.00000000  0.50000000  0.00000000  1
  Cl  Cl7  1  0.50000000  0.50000000  0.00000000  1
  Cl  Cl8  1  0.17774212  0.82225788  0.67153498  1
  Sb  Sb9  1  0.66666667  0.33333333  0.18070020  1
  Sb  Sb10  1  0.33333333  0.66666667  0.81929980  1
  Cs  Cs11  1  0.66666667  0.33333333  0.66553198  1
  Cs  Cs12  1  0.33333333  0.66666667  0.33446802  1
  Cs  Cs13  1  0.00000000  0.00000000  0.00000000  1
