# generated using pymatgen
data_Te2I
_symmetry_space_group_name_H-M   'P 1'
_cell_length_a   4.16443373
_cell_length_b   14.11919143
_cell_length_c   17.07469121
_cell_angle_alpha   90.00000000
_cell_angle_beta   90.00000000
_cell_angle_gamma   90.00000000
_symmetry_Int_Tables_number   1
_chemical_formula_structural   Te2I
_chemical_formula_sum   'Te16 I8'
_cell_volume   1003.96515594
_cell_formula_units_Z   8
loop_
 _symmetry_equiv_pos_site_id
 _symmetry_equiv_pos_as_xyz
  1  'x, y, z'
loop_
 _atom_site_type_symbol
 _atom_site_label
 _atom_site_symmetry_multiplicity
 _atom_site_fract_x
 _atom_site_fract_y
 _atom_site_fract_z
 _atom_site_occupancy
  Te  Te0  1  0.25000000  0.23026672  0.92005534  1
  Te  Te1  1  0.75000000  0.76973328  0.07994466  1
  Te  Te2  1  0.75000000  0.73026672  0.57994466  1
  Te  Te3  1  0.25000000  0.26973328  0.42005534  1
  Te  Te4  1  0.75000000  0.08721001  0.90323962  1
  Te  Te5  1  0.25000000  0.91278999  0.09676038  1
  Te  Te6  1  0.25000000  0.58721001  0.59676038  1
  Te  Te7  1  0.75000000  0.41278999  0.40323962  1
  Te  Te8  1  0.75000000  0.06265382  0.73081282  1
  Te  Te9  1  0.25000000  0.93734618  0.26918718  1
  Te  Te10  1  0.25000000  0.56265382  0.76918718  1
  Te  Te11  1  0.75000000  0.43734618  0.23081282  1
  Te  Te12  1  0.25000000  0.19832597  0.69355288  1
  Te  Te13  1  0.75000000  0.80167403  0.30644712  1
  Te  Te14  1  0.75000000  0.69832597  0.80644712  1
  Te  Te15  1  0.25000000  0.30167403  0.19355288  1
  I  I16  1  0.75000000  0.38946742  0.94363270  1
  I  I17  1  0.25000000  0.61053258  0.05636730  1
  I  I18  1  0.25000000  0.88946742  0.55636730  1
  I  I19  1  0.75000000  0.11053258  0.44363270  1
  I  I20  1  0.75000000  0.35776893  0.65379336  1
  I  I21  1  0.25000000  0.64223107  0.34620664  1
  I  I22  1  0.25000000  0.85776893  0.84620664  1
  I  I23  1  0.75000000  0.14223107  0.15379336  1
