# generated using pymatgen
data_LiCoSiO4
_symmetry_space_group_name_H-M   'P 1'
_cell_length_a   5.68249534
_cell_length_b   5.68336874
_cell_length_c   8.02116553
_cell_angle_alpha   90.00842467
_cell_angle_beta   90.00003371
_cell_angle_gamma   90.00090245
_symmetry_Int_Tables_number   1
_chemical_formula_structural   LiCoSiO4
_chemical_formula_sum   'Li4 Co4 Si4 O16'
_cell_volume   259.04928402
_cell_formula_units_Z   4
loop_
 _symmetry_equiv_pos_site_id
 _symmetry_equiv_pos_as_xyz
  1  'x, y, z'
loop_
 _atom_site_type_symbol
 _atom_site_label
 _atom_site_symmetry_multiplicity
 _atom_site_fract_x
 _atom_site_fract_y
 _atom_site_fract_z
 _atom_site_occupancy
  Li  Li0  1  0.99996425  0.22603782  0.99994414  1
  Li  Li1  1  0.99996222  0.77398120  0.50005706  1
  Li  Li2  1  0.22598646  0.00000829  0.25001248  1
  Li  Li3  1  0.77403622  0.00000504  0.74998743  1
  Co  Co4  1  0.22919719  0.49999706  0.25001111  1
  Co  Co5  1  0.50000586  0.22921084  0.00003453  1
  Co  Co6  1  0.50000424  0.77078166  0.49996646  1
  Co  Co7  1  0.77063877  0.49999375  0.74998714  1
  Si  Si8  1  0.25675254  0.25680809  0.62501673  1
  Si  Si9  1  0.25674601  0.74318787  0.87497045  1
  Si  Si10  1  0.74326791  0.25674556  0.37504301  1
  Si  Si11  1  0.74327748  0.74325341  0.12496824  1
  O  O12  1  0.98537858  0.26015462  0.26163880  1
  O  O13  1  0.98538585  0.73984274  0.23837510  1
  O  O14  1  0.26016821  0.98535821  0.98830607  1
  O  O15  1  0.26016143  0.01462634  0.51170024  1
  O  O16  1  0.25999723  0.50489085  0.99963787  1
  O  O17  1  0.25998351  0.49511243  0.50036022  1
  O  O18  1  0.50491022  0.26000350  0.25036883  1
  O  O19  1  0.50493313  0.74000398  0.24965763  1
  O  O20  1  0.49515539  0.26004725  0.74963682  1
  O  O21  1  0.49513534  0.73995986  0.75033705  1
  O  O22  1  0.74002594  0.49509550  0.49967422  1
  O  O23  1  0.74001249  0.50490990  0.00032805  1
  O  O24  1  0.73985656  0.01463663  0.48836897  1
  O  O25  1  0.73984854  0.98535032  0.01162470  1
  O  O26  1  0.01460707  0.26023794  0.73836634  1
  O  O27  1  0.01460134  0.73975935  0.76162029  1
