# generated using pymatgen
data_Ca2B6O11
_symmetry_space_group_name_H-M   'P 1'
_cell_length_a   8.76008864
_cell_length_b   8.65754835
_cell_length_c   10.82059445
_cell_angle_alpha   90.00000000
_cell_angle_beta   90.00000000
_cell_angle_gamma   111.55018187
_symmetry_Int_Tables_number   1
_chemical_formula_structural   Ca2B6O11
_chemical_formula_sum   'Ca8 B24 O44'
_cell_volume   763.27743567
_cell_formula_units_Z   4
loop_
 _symmetry_equiv_pos_site_id
 _symmetry_equiv_pos_as_xyz
  1  'x, y, z'
loop_
 _atom_site_type_symbol
 _atom_site_label
 _atom_site_symmetry_multiplicity
 _atom_site_fract_x
 _atom_site_fract_y
 _atom_site_fract_z
 _atom_site_occupancy
  B  B0  1  0.26662893  0.41567343  0.91975057  1
  B  B1  1  0.96127822  0.28758420  0.93619123  1
  B  B2  1  0.53872178  0.71241580  0.43619123  1
  B  B3  1  0.03872178  0.71241580  0.06380877  1
  B  B4  1  0.46127822  0.28758420  0.56380877  1
  B  B5  1  0.89835758  0.71427292  0.65573881  1
  B  B6  1  0.60164242  0.28572708  0.15573881  1
  B  B7  1  0.10164242  0.28572708  0.34426119  1
  B  B8  1  0.39835758  0.71427292  0.84426119  1
  B  B9  1  0.23337107  0.58432657  0.41975057  1
  B  B10  1  0.73337107  0.58432657  0.08024943  1
  B  B11  1  0.76662893  0.41567343  0.58024943  1
  B  B12  1  0.48707681  0.00821174  0.74995280  1
  B  B13  1  0.01292319  0.99178826  0.24995280  1
  B  B14  1  0.51292319  0.99178826  0.25004720  1
  B  B15  1  0.98707681  0.00821174  0.75004720  1
  B  B16  1  0.37906779  0.75901047  0.61561486  1
  B  B17  1  0.12093221  0.24098953  0.11561486  1
  B  B18  1  0.62093221  0.24098953  0.38438514  1
  B  B19  1  0.87906779  0.75901047  0.88438514  1
  B  B20  1  0.30645101  0.19525538  0.76249138  1
  B  B21  1  0.19354899  0.80474462  0.26249138  1
  B  B22  1  0.69354899  0.80474462  0.23750862  1
  B  B23  1  0.80645101  0.19525538  0.73750862  1
  O  O24  1  0.34670457  0.92939761  0.29905030  1
  O  O25  1  0.44217669  0.14172671  0.80527180  1
  O  O26  1  0.05782331  0.85827329  0.30527180  1
  O  O27  1  0.55782331  0.85827329  0.19472820  1
  O  O28  1  0.94217669  0.14172671  0.69472820  1
  O  O29  1  0.46971956  0.88492521  0.86500408  1
  O  O30  1  0.03028044  0.11507479  0.36500408  1
  O  O31  1  0.53028044  0.11507479  0.13499592  1
  O  O32  1  0.30934463  0.22487371  0.62384656  1
  O  O33  1  0.19065537  0.77512629  0.12384656  1
  O  O34  1  0.69065537  0.77512629  0.37615344  1
  O  O35  1  0.80934463  0.22487371  0.87615344  1
  O  O36  1  0.23594067  0.67294249  0.53561947  1
  O  O37  1  0.26405933  0.32705751  0.03561947  1
  O  O38  1  0.76405933  0.32705751  0.46438053  1
  O  O39  1  0.73594067  0.67294249  0.96438053  1
  O  O40  1  0.34602446  0.36047957  0.82049519  1
  O  O41  1  0.15397554  0.63952043  0.32049519  1
  O  O42  1  0.65397554  0.63952043  0.17950481  1
  O  O43  1  0.84602446  0.36047957  0.67950481  1
  O  O44  1  0.09707550  0.39857461  0.88019261  1
  O  O45  1  0.40292450  0.60142539  0.38019261  1
  O  O46  1  0.90292450  0.60142539  0.11980739  1
  O  O47  1  0.59707550  0.39857461  0.61980739  1
  O  O48  1  0.15329543  0.07060239  0.79905030  1
  O  O49  1  0.96971956  0.88492521  0.63499592  1
  O  O50  1  0.84670457  0.92939761  0.20094970  1
  O  O51  1  0.65329543  0.07060239  0.70094970  1
  O  O52  1  0.36153393  0.65358039  0.72629540  1
  O  O53  1  0.13846607  0.34641961  0.22629540  1
  O  O54  1  0.63846607  0.34641961  0.27370460  1
  O  O55  1  0.86153393  0.65358039  0.77370460  1
  O  O56  1  0.03623735  0.77841711  0.94948613  1
  O  O57  1  0.87547544  0.91896118  0.84802148  1
  O  O58  1  0.96376265  0.22158289  0.05051387  1
  O  O59  1  0.53623735  0.77841711  0.55051387  1
  O  O60  1  0.36156027  0.60096819  0.94105017  1
  O  O61  1  0.13843973  0.39903181  0.44105017  1
  O  O62  1  0.63843973  0.39903181  0.05894983  1
  O  O63  1  0.86156027  0.60096819  0.55894983  1
  O  O64  1  0.37547544  0.91896118  0.65197852  1
  O  O65  1  0.12452456  0.08103882  0.15197852  1
  O  O66  1  0.62452456  0.08103882  0.34802148  1
  O  O67  1  0.46376265  0.22158289  0.44948613  1
  Ca  Ca68  1  0.63825253  0.41505765  0.83889056  1
  Ca  Ca69  1  0.86174747  0.58494235  0.33889056  1
  Ca  Ca70  1  0.36174747  0.58494235  0.16110944  1
  Ca  Ca71  1  0.13825253  0.41505765  0.66110944  1
  Ca  Ca72  1  0.77917480  0.02431870  0.50829666  1
  Ca  Ca73  1  0.72082520  0.97568130  0.00829666  1
  Ca  Ca74  1  0.22082520  0.97568130  0.49170334  1
  Ca  Ca75  1  0.27917480  0.02431870  0.99170334  1
