# generated using pymatgen
data_TaPS6
_symmetry_space_group_name_H-M   'P 1'
_cell_length_a   13.27959970
_cell_length_b   13.27959969
_cell_length_c   13.27959970
_cell_angle_alpha   105.14400293
_cell_angle_beta   105.14400295
_cell_angle_gamma   118.52278328
_symmetry_Int_Tables_number   1
_chemical_formula_structural   TaPS6
_chemical_formula_sum   'Ta8 P8 S48'
_cell_volume   1768.51845135
_cell_formula_units_Z   8
loop_
 _symmetry_equiv_pos_site_id
 _symmetry_equiv_pos_as_xyz
  1  'x, y, z'
loop_
 _atom_site_type_symbol
 _atom_site_label
 _atom_site_symmetry_multiplicity
 _atom_site_fract_x
 _atom_site_fract_y
 _atom_site_fract_z
 _atom_site_occupancy
  P  P0  1  0.25000000  0.68057542  0.43057542  1
  P  P1  1  0.25000000  0.18057542  0.93057542  1
  P  P2  1  0.18057542  0.75000000  0.93057542  1
  P  P3  1  0.31942458  0.25000000  0.56942458  1
  P  P4  1  0.75000000  0.31942458  0.56942458  1
  P  P5  1  0.75000000  0.81942458  0.06942458  1
  P  P6  1  0.81942458  0.25000000  0.06942458  1
  P  P7  1  0.68057542  0.75000000  0.43057542  1
  S  S8  1  0.53796239  0.19854073  0.24738969  1
  S  S9  1  0.84099310  0.87581674  0.97113170  1
  S  S10  1  0.87581674  0.40468504  0.03482363  1
  S  S11  1  0.86986141  0.84099310  0.46517637  1
  S  S12  1  0.40468504  0.86986141  0.52886830  1
  S  S13  1  0.62418326  0.65900690  0.52886830  1
  S  S14  1  0.09531496  0.62418326  0.46517637  1
  S  S15  1  0.65900690  0.63013859  0.03482363  1
  S  S16  1  0.54884896  0.70942730  0.74738969  1
  S  S17  1  0.70942730  0.46203761  0.16057834  1
  S  S18  1  0.80145927  0.54884896  0.33942166  1
  S  S19  1  0.46203761  0.80145927  0.75261031  1
  S  S20  1  0.79057270  0.95115104  0.75261031  1
  S  S21  1  0.03796239  0.79057270  0.33942166  1
  S  S22  1  0.95115104  0.69854073  0.16057834  1
  S  S23  1  0.69854073  0.03796239  0.74738969  1
  S  S24  1  0.45115104  0.29057270  0.25261031  1
  S  S25  1  0.29057270  0.53796239  0.83942166  1
  S  S26  1  0.19854073  0.45115104  0.66057834  1
  S  S27  1  0.63013859  0.09531496  0.97113170  1
  S  S28  1  0.20942730  0.04884896  0.24738969  1
  S  S29  1  0.96203761  0.20942730  0.66057834  1
  S  S30  1  0.04884896  0.30145927  0.83942166  1
  S  S31  1  0.30145927  0.96203761  0.25261031  1
  S  S32  1  0.40892187  0.36831794  0.74711441  1
  S  S33  1  0.36831794  0.12120352  0.95939607  1
  S  S34  1  0.66180746  0.40892187  0.54060393  1
  S  S35  1  0.12120352  0.66180746  0.75288559  1
  S  S36  1  0.13168206  0.09107813  0.75288559  1
  S  S37  1  0.37879648  0.13168206  0.54060393  1
  S  S38  1  0.09107813  0.83819254  0.95939607  1
  S  S39  1  0.83819254  0.37879648  0.74711441  1
  S  S40  1  0.59107813  0.63168206  0.25288559  1
  S  S41  1  0.63168206  0.87879648  0.04060393  1
  S  S42  1  0.33819254  0.59107813  0.45939607  1
  S  S43  1  0.87879648  0.33819254  0.24711441  1
  S  S44  1  0.86831794  0.90892187  0.24711441  1
  S  S45  1  0.62120352  0.86831794  0.45939607  1
  S  S46  1  0.90892187  0.16180746  0.04060393  1
  S  S47  1  0.16180746  0.62120352  0.25288559  1
  S  S48  1  0.36986141  0.90468504  0.02886830  1
  S  S49  1  0.12418326  0.59531496  0.96517637  1
  S  S50  1  0.13013859  0.15900690  0.53482363  1
  S  S51  1  0.59531496  0.13013859  0.47113170  1
  S  S52  1  0.37581674  0.34099310  0.47113170  1
  S  S53  1  0.90468504  0.37581674  0.53482363  1
  S  S54  1  0.34099310  0.36986141  0.96517637  1
  S  S55  1  0.15900690  0.12418326  0.02886830  1
  Ta  Ta56  1  0.70066913  0.95066913  0.90133827  1
  Ta  Ta57  1  0.95066913  0.54933087  0.25000000  1
  Ta  Ta58  1  0.79933087  0.70066913  0.25000000  1
  Ta  Ta59  1  0.54933087  0.79933087  0.59866173  1
  Ta  Ta60  1  0.29933087  0.04933087  0.09866173  1
  Ta  Ta61  1  0.04933087  0.45066913  0.75000000  1
  Ta  Ta62  1  0.20066913  0.29933087  0.75000000  1
  Ta  Ta63  1  0.45066913  0.20066913  0.40133827  1
