# generated using pymatgen
data_Cd2P2O7
_symmetry_space_group_name_H-M   'P 1'
_cell_length_a   6.81200327
_cell_length_b   6.69701382
_cell_length_c   6.95487105
_cell_angle_alpha   65.21453667
_cell_angle_beta   83.09638749
_cell_angle_gamma   81.60383091
_symmetry_Int_Tables_number   1
_chemical_formula_structural   Cd2P2O7
_chemical_formula_sum   'Cd4 P4 O14'
_cell_volume   284.35243813
_cell_formula_units_Z   2
loop_
 _symmetry_equiv_pos_site_id
 _symmetry_equiv_pos_as_xyz
  1  'x, y, z'
loop_
 _atom_site_type_symbol
 _atom_site_label
 _atom_site_symmetry_multiplicity
 _atom_site_fract_x
 _atom_site_fract_y
 _atom_site_fract_z
 _atom_site_occupancy
  O  O0  1  0.24936299  0.79067196  0.23173038  1
  O  O1  1  0.75063701  0.20932804  0.76826962  1
  O  O2  1  0.48891056  0.90902932  0.77048193  1
  O  O3  1  0.51108944  0.09097068  0.22951807  1
  O  O4  1  0.92118183  0.73861203  0.11258148  1
  O  O5  1  0.07881817  0.26138797  0.88741852  1
  O  O6  1  0.43017771  0.61050217  0.64707777  1
  O  O7  1  0.56982229  0.38949783  0.35292223  1
  O  O8  1  0.74454538  0.39616985  0.02028635  1
  O  O9  1  0.25545462  0.60383015  0.97971365  1
  O  O10  1  0.83817987  0.07044826  0.36431644  1
  O  O11  1  0.16182013  0.92955174  0.63568356  1
  O  O12  1  0.85979517  0.59591955  0.64433543  1
  O  O13  1  0.14020483  0.40408045  0.35566457  1
  P  P14  1  0.33825932  0.76927037  0.74875675  1
  P  P15  1  0.66174068  0.23072963  0.25124325  1
  P  P16  1  0.13500235  0.64182418  0.18263645  1
  P  P17  1  0.86499765  0.35817582  0.81736355  1
  Cd  Cd18  1  0.83544719  0.88407275  0.74860928  1
  Cd  Cd19  1  0.16455281  0.11592725  0.25139072  1
  Cd  Cd20  1  0.65292785  0.71620014  0.35109249  1
  Cd  Cd21  1  0.34707215  0.28379986  0.64890751  1
