# generated using pymatgen
data_Zn2(PS3)3
_symmetry_space_group_name_H-M   'P 1'
_cell_length_a   7.12886440
_cell_length_b   10.85222844
_cell_length_c   10.85222844
_cell_angle_alpha   59.74786663
_cell_angle_beta   85.62253679
_cell_angle_gamma   85.62253676
_symmetry_Int_Tables_number   1
_chemical_formula_structural   Zn2(PS3)3
_chemical_formula_sum   'Zn4 P6 S18'
_cell_volume   722.42174045
_cell_formula_units_Z   2
loop_
 _symmetry_equiv_pos_site_id
 _symmetry_equiv_pos_as_xyz
  1  'x, y, z'
loop_
 _atom_site_type_symbol
 _atom_site_label
 _atom_site_symmetry_multiplicity
 _atom_site_fract_x
 _atom_site_fract_y
 _atom_site_fract_z
 _atom_site_occupancy
  P  P0  1  0.38830218  0.27623653  0.27623653  1
  P  P1  1  0.61169782  0.72376347  0.72376347  1
  P  P2  1  0.63912065  0.02415073  0.02415073  1
  P  P3  1  0.36087935  0.97584927  0.97584927  1
  P  P4  1  0.69074157  0.37106240  0.37106240  1
  P  P5  1  0.30925843  0.62893760  0.62893760  1
  S  S6  1  0.69020633  0.25796285  0.25796285  1
  S  S7  1  0.17969183  0.06900057  0.06900057  1
  S  S8  1  0.61043173  0.61100446  0.61100446  1
  S  S9  1  0.38956827  0.38899554  0.38899554  1
  S  S10  1  0.65830775  0.91899366  0.23840988  1
  S  S11  1  0.82030817  0.93099943  0.93099943  1
  S  S12  1  0.34169225  0.08100634  0.76159012  1
  S  S13  1  0.65830775  0.23840988  0.91899366  1
  S  S14  1  0.26941554  0.08888574  0.40651673  1
  S  S15  1  0.73058446  0.59348327  0.91111426  1
  S  S16  1  0.73058446  0.91111426  0.59348327  1
  S  S17  1  0.26941554  0.40651673  0.08888574  1
  S  S18  1  0.81474926  0.26349108  0.55934242  1
  S  S19  1  0.18525074  0.44065758  0.73650892  1
  S  S20  1  0.18525074  0.73650892  0.44065758  1
  S  S21  1  0.81474926  0.55934242  0.26349108  1
  S  S22  1  0.34169225  0.76159012  0.08100634  1
  S  S23  1  0.30979367  0.74203715  0.74203715  1
  Zn  Zn24  1  0.33871949  0.29436217  0.95239369  1
  Zn  Zn25  1  0.66128051  0.04760631  0.70563783  1
  Zn  Zn26  1  0.66128051  0.70563783  0.04760631  1
  Zn  Zn27  1  0.33871949  0.95239369  0.29436217  1
