# generated using pymatgen
data_Sb(MoO4)2
_symmetry_space_group_name_H-M   'P 1'
_cell_length_a   12.03242489
_cell_length_b   12.03242489
_cell_length_c   5.50263231
_cell_angle_alpha   75.69469542
_cell_angle_beta   104.30530460
_cell_angle_gamma   156.22315906
_symmetry_Int_Tables_number   1
_chemical_formula_structural   Sb(MoO4)2
_chemical_formula_sum   'Sb2 Mo4 O16'
_cell_volume   310.78838557
_cell_formula_units_Z   2
loop_
 _symmetry_equiv_pos_site_id
 _symmetry_equiv_pos_as_xyz
  1  'x, y, z'
loop_
 _atom_site_type_symbol
 _atom_site_label
 _atom_site_symmetry_multiplicity
 _atom_site_fract_x
 _atom_site_fract_y
 _atom_site_fract_z
 _atom_site_occupancy
  O  O0  1  0.55381630  0.64745522  0.38280916  1
  O  O1  1  0.94419756  0.14629614  0.11070303  1
  O  O2  1  0.85370386  0.05580244  0.61070303  1
  O  O3  1  0.70372783  0.11846780  0.22668221  1
  O  O4  1  0.05580244  0.85370386  0.88929697  1
  O  O5  1  0.14629614  0.94419756  0.38929697  1
  O  O6  1  0.29627217  0.88153220  0.77331779  1
  O  O7  1  0.11846780  0.70372783  0.27331779  1
  O  O8  1  0.31940134  0.62131527  0.50352736  1
  O  O9  1  0.37868473  0.68059866  0.00352736  1
  O  O10  1  0.35254478  0.44618370  0.88280916  1
  O  O11  1  0.68059866  0.37868473  0.49647264  1
  O  O12  1  0.44618370  0.35254478  0.61719084  1
  O  O13  1  0.64745522  0.55381630  0.11719084  1
  O  O14  1  0.62131527  0.31940134  0.99647264  1
  O  O15  1  0.88153220  0.29627217  0.72668221  1
  Mo  Mo16  1  0.09030244  0.36972995  0.76637617  1
  Mo  Mo17  1  0.90969756  0.63027005  0.23362383  1
  Mo  Mo18  1  0.36972995  0.09030244  0.73362383  1
  Mo  Mo19  1  0.63027005  0.90969756  0.26637617  1
  Sb  Sb20  1  0.67407668  0.67407668  0.75000000  1
  Sb  Sb21  1  0.32592332  0.32592332  0.25000000  1
