# generated using pymatgen
data_LiCo2C2O7
_symmetry_space_group_name_H-M   'P 1'
_cell_length_a   8.31218525
_cell_length_b   8.24672945
_cell_length_c   7.88591313
_cell_angle_alpha   91.04908020
_cell_angle_beta   90.00000000
_cell_angle_gamma   59.73709500
_symmetry_Int_Tables_number   1
_chemical_formula_structural   LiCo2C2O7
_chemical_formula_sum   'Li3 Co6 C6 O21'
_cell_volume   466.79408494
_cell_formula_units_Z   3
loop_
 _symmetry_equiv_pos_site_id
 _symmetry_equiv_pos_as_xyz
  1  'x, y, z'
loop_
 _atom_site_type_symbol
 _atom_site_label
 _atom_site_symmetry_multiplicity
 _atom_site_fract_x
 _atom_site_fract_y
 _atom_site_fract_z
 _atom_site_occupancy
  Li  Li0  1  0.99739986  0.64119791  0.49936986  1
  Li  Li1  1  0.34777449  0.00000000  0.50000000  1
  Li  Li2  1  0.63859776  0.35880209  0.50063014  1
  Co  Co3  1  0.99822550  0.99471052  0.27352934  1
  Co  Co4  1  0.99293702  0.00528948  0.72647066  1
  Co  Co5  1  0.32011365  0.34749688  0.81020232  1
  Co  Co6  1  0.33666839  0.32400817  0.26079660  1
  Co  Co7  1  0.66760953  0.65250312  0.18979768  1
  Co  Co8  1  0.66067655  0.67599183  0.73920340  1
  C  C9  1  0.00023520  0.33833273  0.29362354  1
  C  C10  1  0.33636004  0.65963310  0.29158591  1
  C  C11  1  0.66280992  0.99703920  0.28860799  1
  C  C12  1  0.33856793  0.66166727  0.70637646  1
  C  C13  1  0.99599314  0.34036690  0.70841409  1
  C  C14  1  0.65984912  0.00296080  0.71139201  1
  O  O15  1  0.02481530  0.00000000  0.50000000  1
  O  O16  1  0.07803679  0.18336542  0.78495974  1
  O  O17  1  0.17072533  0.23980720  0.34865789  1
  O  O18  1  0.08371300  0.43364856  0.68772655  1
  O  O19  1  0.35010612  0.33335532  0.02622204  1
  O  O20  1  0.23869524  0.58912591  0.34995922  1
  O  O21  1  0.47965222  0.08770687  0.69941774  1
  O  O22  1  0.17549966  0.73937146  0.77313690  1
  O  O23  1  0.26140221  0.81663458  0.21504026  1
  O  O24  1  0.43655904  0.47872409  0.69262663  1
  O  O25  1  0.59098844  0.16803036  0.35254273  1
  O  O26  1  0.73855334  0.08383306  0.78623392  1
  O  O27  1  0.41053253  0.76019280  0.65134211  1
  O  O28  1  0.51736055  0.56635144  0.31227345  1
  O  O29  1  0.68346144  0.66664468  0.97377796  1
  O  O30  1  0.82782114  0.41087409  0.65004078  1
  O  O31  1  0.56736008  0.91229313  0.30058226  1
  O  O32  1  0.91487113  0.26062854  0.22686310  1
  O  O33  1  0.91528213  0.52127591  0.30737337  1
  O  O34  1  0.75901980  0.83196964  0.64745727  1
  O  O35  1  0.82238640  0.91616694  0.21376608  1
