# generated using pymatgen
data_ThI4
_symmetry_space_group_name_H-M   'P 1'
_cell_length_a   8.46589764
_cell_length_b   8.21355483
_cell_length_c   13.79284841
_cell_angle_alpha   90.00000000
_cell_angle_beta   102.78028635
_cell_angle_gamma   90.00000000
_symmetry_Int_Tables_number   1
_chemical_formula_structural   ThI4
_chemical_formula_sum   'Th4 I16'
_cell_volume   935.32640856
_cell_formula_units_Z   4
loop_
 _symmetry_equiv_pos_site_id
 _symmetry_equiv_pos_as_xyz
  1  'x, y, z'
loop_
 _atom_site_type_symbol
 _atom_site_label
 _atom_site_symmetry_multiplicity
 _atom_site_fract_x
 _atom_site_fract_y
 _atom_site_fract_z
 _atom_site_occupancy
  I  I0  1  0.48704881  0.86010583  0.34911801  1
  I  I1  1  0.01295119  0.36010583  0.15088199  1
  I  I2  1  0.51295119  0.13989417  0.65088199  1
  I  I3  1  0.98704881  0.63989417  0.84911801  1
  I  I4  1  0.17395993  0.08338730  0.94631037  1
  I  I5  1  0.32604007  0.58338730  0.55368963  1
  I  I6  1  0.82604007  0.91661270  0.05368963  1
  I  I7  1  0.67395993  0.41661270  0.44631037  1
  I  I8  1  0.52358073  0.74602901  0.81262869  1
  I  I9  1  0.97641927  0.24602901  0.68737131  1
  I  I10  1  0.47641927  0.25397099  0.18737131  1
  I  I11  1  0.02358073  0.75397099  0.31262869  1
  I  I12  1  0.69404696  0.30913116  0.89731141  1
  I  I13  1  0.80595304  0.80913116  0.60268859  1
  I  I14  1  0.30595304  0.69086884  0.10268859  1
  I  I15  1  0.19404696  0.19086884  0.39731141  1
  Th  Th16  1  0.32173541  0.51483246  0.31721439  1
  Th  Th17  1  0.17826459  0.01483246  0.18278561  1
  Th  Th18  1  0.67826459  0.48516754  0.68278561  1
  Th  Th19  1  0.82173541  0.98516754  0.81721439  1
