# generated using pymatgen
data_Sb4Br2O5
_symmetry_space_group_name_H-M   'P 1'
_cell_length_a   5.24727670
_cell_length_b   6.73488702
_cell_length_c   13.81580159
_cell_angle_alpha   96.08802104
_cell_angle_beta   90.00000000
_cell_angle_gamma   90.00000000
_symmetry_Int_Tables_number   1
_chemical_formula_structural   Sb4Br2O5
_chemical_formula_sum   'Sb8 Br4 O10'
_cell_volume   485.49423265
_cell_formula_units_Z   2
loop_
 _symmetry_equiv_pos_site_id
 _symmetry_equiv_pos_as_xyz
  1  'x, y, z'
loop_
 _atom_site_type_symbol
 _atom_site_label
 _atom_site_symmetry_multiplicity
 _atom_site_fract_x
 _atom_site_fract_y
 _atom_site_fract_z
 _atom_site_occupancy
  O  O0  1  0.17125787  0.07040467  0.70933700  1
  O  O1  1  0.32874213  0.07040467  0.20933700  1
  O  O2  1  0.82874213  0.92959533  0.29066300  1
  O  O3  1  0.67125787  0.92959533  0.79066300  1
  O  O4  1  0.50713649  0.93232689  0.58164883  1
  O  O5  1  0.00713649  0.06767311  0.91835117  1
  O  O6  1  0.49286351  0.06767311  0.41835117  1
  O  O7  1  0.99286351  0.93232689  0.08164883  1
  O  O8  1  0.00000000  0.00000000  0.50000000  1
  O  O9  1  0.50000000  0.00000000  0.00000000  1
  Br  Br10  1  0.28722880  0.49136019  0.88152872  1
  Br  Br11  1  0.21277120  0.49136019  0.38152872  1
  Br  Br12  1  0.71277120  0.50863981  0.11847128  1
  Br  Br13  1  0.78722880  0.50863981  0.61847128  1
  Sb  Sb14  1  0.60689980  0.19199543  0.29615494  1
  Sb  Sb15  1  0.10689980  0.80800457  0.20384506  1
  Sb  Sb16  1  0.39310020  0.80800457  0.70384506  1
  Sb  Sb17  1  0.89310020  0.19199543  0.79615494  1
  Sb  Sb18  1  0.72236319  0.82687143  0.45053011  1
  Sb  Sb19  1  0.22236319  0.17312857  0.04946989  1
  Sb  Sb20  1  0.27763681  0.17312857  0.54946989  1
  Sb  Sb21  1  0.77763681  0.82687143  0.95053011  1
