# generated using pymatgen
data_BaB4O7
_symmetry_space_group_name_H-M   'P 1'
_cell_length_a   8.36510819
_cell_length_b   10.73786164
_cell_length_c   13.17748468
_cell_angle_alpha   105.04158563
_cell_angle_beta   90.00000000
_cell_angle_gamma   90.00000000
_symmetry_Int_Tables_number   1
_chemical_formula_structural   BaB4O7
_chemical_formula_sum   'Ba8 B32 O56'
_cell_volume   1143.09172377
_cell_formula_units_Z   8
loop_
 _symmetry_equiv_pos_site_id
 _symmetry_equiv_pos_as_xyz
  1  'x, y, z'
loop_
 _atom_site_type_symbol
 _atom_site_label
 _atom_site_symmetry_multiplicity
 _atom_site_fract_x
 _atom_site_fract_y
 _atom_site_fract_z
 _atom_site_occupancy
  B  B0  1  0.71602173  0.98972934  0.55219473  1
  B  B1  1  0.09165616  0.86209498  0.49305005  1
  B  B2  1  0.59165616  0.13790502  0.00694995  1
  B  B3  1  0.90834384  0.13790502  0.50694995  1
  B  B4  1  0.40834384  0.86209498  0.99305005  1
  B  B5  1  0.82519648  0.60288874  0.39371404  1
  B  B6  1  0.32519648  0.39711126  0.10628596  1
  B  B7  1  0.17480352  0.39711126  0.60628596  1
  B  B8  1  0.67480352  0.60288874  0.89371404  1
  B  B9  1  0.21602173  0.01027066  0.94780527  1
  B  B10  1  0.28397827  0.01027066  0.44780527  1
  B  B11  1  0.78397827  0.98972934  0.05219473  1
  B  B12  1  0.30650617  0.81704938  0.80581407  1
  B  B13  1  0.80650617  0.18295062  0.69418593  1
  B  B14  1  0.69349383  0.18295062  0.19418593  1
  B  B15  1  0.19349383  0.81704938  0.30581407  1
  B  B16  1  0.63701401  0.75375727  0.51645340  1
  B  B17  1  0.13701401  0.24624273  0.98354660  1
  B  B18  1  0.36298599  0.24624273  0.48354660  1
  B  B19  1  0.86298599  0.75375727  0.01645340  1
  B  B20  1  0.38253735  0.72224251  0.61914513  1
  B  B21  1  0.88253735  0.27775749  0.88085487  1
  B  B22  1  0.61746265  0.27775749  0.38085487  1
  B  B23  1  0.11746265  0.72224251  0.11914513  1
  B  B24  1  0.13755141  0.63267257  0.68741846  1
  B  B25  1  0.63755141  0.36732743  0.81258154  1
  B  B26  1  0.86244859  0.36732743  0.31258154  1
  B  B27  1  0.36244859  0.63267257  0.18741846  1
  B  B28  1  0.91829614  0.71242359  0.57359899  1
  B  B29  1  0.41829614  0.28757641  0.92640101  1
  B  B30  1  0.08170386  0.28757641  0.42640101  1
  B  B31  1  0.58170386  0.71242359  0.07359899  1
  O  O32  1  0.25367540  0.63895227  0.60473832  1
  O  O33  1  0.80601936  0.68281477  0.90743215  1
  O  O34  1  0.30601936  0.31718523  0.59256785  1
  O  O35  1  0.19398064  0.31718523  0.09256785  1
  O  O36  1  0.69398064  0.68281477  0.40743215  1
  O  O37  1  0.41535144  0.79610684  0.88942865  1
  O  O38  1  0.91535144  0.20389316  0.61057135  1
  O  O39  1  0.58464856  0.20389316  0.11057135  1
  O  O40  1  0.74911109  0.74193094  0.59804196  1
  O  O41  1  0.24911109  0.25806906  0.90195804  1
  O  O42  1  0.25088891  0.25806906  0.40195804  1
  O  O43  1  0.75088891  0.74193094  0.09804196  1
  O  O44  1  0.61118384  0.89092978  0.51386892  1
  O  O45  1  0.11118384  0.10907022  0.98613108  1
  O  O46  1  0.38881616  0.10907022  0.48613108  1
  O  O47  1  0.88881616  0.89092978  0.01386892  1
  O  O48  1  0.48153276  0.69799267  0.53293533  1
  O  O49  1  0.98153276  0.30200733  0.96706467  1
  O  O50  1  0.51846724  0.30200733  0.46706467  1
  O  O51  1  0.01846724  0.69799267  0.03293533  1
  O  O52  1  0.40121529  0.81891496  0.71078409  1
  O  O53  1  0.90121529  0.18108504  0.78921591  1
  O  O54  1  0.59878471  0.18108504  0.28921591  1
  O  O55  1  0.09878471  0.81891496  0.21078409  1
  O  O56  1  0.22545205  0.94828056  0.84271567  1
  O  O57  1  0.72545205  0.05171944  0.65728433  1
  O  O58  1  0.77454795  0.05171944  0.15728433  1
  O  O59  1  0.27454795  0.94828056  0.34271567  1
  O  O60  1  0.64638907  0.50655545  0.80214508  1
  O  O61  1  0.14638907  0.49344455  0.69785492  1
  O  O62  1  0.35361093  0.49344455  0.19785492  1
  O  O63  1  0.85361093  0.50655545  0.30214508  1
  O  O64  1  0.08464856  0.79610684  0.38942865  1
  O  O65  1  0.75367540  0.36104773  0.89526168  1
  O  O66  1  0.74632460  0.36104773  0.39526168  1
  O  O67  1  0.24632460  0.63895227  0.10473832  1
  O  O68  1  0.19659555  0.96846815  0.52348097  1
  O  O69  1  0.69659555  0.03153185  0.97651903  1
  O  O70  1  0.80340445  0.03153185  0.47651903  1
  O  O71  1  0.30340445  0.96846815  0.02348097  1
  O  O72  1  0.52517888  0.66331185  0.16142503  1
  O  O73  1  0.50798888  0.16721021  0.92774901  1
  O  O74  1  0.99201112  0.16721021  0.42774901  1
  O  O75  1  0.49201112  0.83278979  0.07225099  1
  O  O76  1  0.18326367  0.71848181  0.78852116  1
  O  O77  1  0.68326367  0.28151819  0.71147884  1
  O  O78  1  0.81673633  0.28151819  0.21147884  1
  O  O79  1  0.31673633  0.71848181  0.28852116  1
  O  O80  1  0.56550795  0.61224993  0.97399850  1
  O  O81  1  0.06550795  0.38775007  0.52600150  1
  O  O82  1  0.43449205  0.38775007  0.02600150  1
  O  O83  1  0.93449205  0.61224993  0.47399850  1
  O  O84  1  0.97482112  0.66331185  0.66142503  1
  O  O85  1  0.47482112  0.33668815  0.83857497  1
  O  O86  1  0.02517888  0.33668815  0.33857497  1
  O  O87  1  0.00798888  0.83278979  0.57225099  1
  Ba  Ba88  1  0.61821645  0.89235682  0.29611245  1
  Ba  Ba89  1  0.11821645  0.10764318  0.20388755  1
  Ba  Ba90  1  0.38178355  0.10764318  0.70388755  1
  Ba  Ba91  1  0.88178355  0.89235682  0.79611245  1
  Ba  Ba92  1  0.23739071  0.53837481  0.39363367  1
  Ba  Ba93  1  0.73739071  0.46162519  0.10636633  1
  Ba  Ba94  1  0.76260929  0.46162519  0.60636633  1
  Ba  Ba95  1  0.26260929  0.53837481  0.89363367  1
