# generated using pymatgen
data_LiP7
_symmetry_space_group_name_H-M   'P 1'
_cell_length_a   12.16080117
_cell_length_b   12.16080116
_cell_length_c   12.16080116
_cell_angle_alpha   104.84375616
_cell_angle_beta   111.83333570
_cell_angle_gamma   111.83333569
_symmetry_Int_Tables_number   1
_chemical_formula_structural   LiP7
_chemical_formula_sum   'Li8 P56'
_cell_volume   1377.70927516
_cell_formula_units_Z   8
loop_
 _symmetry_equiv_pos_site_id
 _symmetry_equiv_pos_as_xyz
  1  'x, y, z'
loop_
 _atom_site_type_symbol
 _atom_site_label
 _atom_site_symmetry_multiplicity
 _atom_site_fract_x
 _atom_site_fract_y
 _atom_site_fract_z
 _atom_site_occupancy
  Li  Li0  1  0.98751452  0.74375726  0.49375726  1
  Li  Li1  1  0.75000000  0.49375726  0.00624274  1
  Li  Li2  1  0.75000000  0.75624274  0.74375726  1
  Li  Li3  1  0.51248548  0.00624274  0.75624274  1
  Li  Li4  1  0.01248548  0.25624274  0.50624274  1
  Li  Li5  1  0.25000000  0.50624274  0.99375726  1
  Li  Li6  1  0.25000000  0.24375726  0.25624274  1
  Li  Li7  1  0.48751452  0.99375726  0.24375726  1
  P  P8  1  0.63279058  0.41892916  0.14273414  1
  P  P9  1  0.72380499  0.14273414  0.00994356  1
  P  P10  1  0.77619501  0.78613857  0.41892916  1
  P  P11  1  0.77619501  0.49005644  0.35726586  1
  P  P12  1  0.72380499  0.08107084  0.71386143  1
  P  P13  1  0.86720942  0.00994356  0.78613857  1
  P  P14  1  0.86720942  0.35726586  0.08107084  1
  P  P15  1  0.63279058  0.71386143  0.49005644  1
  P  P16  1  0.36720942  0.58107084  0.85726586  1
  P  P17  1  0.27619501  0.85726586  0.99005644  1
  P  P18  1  0.22380499  0.21386143  0.58107084  1
  P  P19  1  0.22380499  0.50994356  0.64273414  1
  P  P20  1  0.27619501  0.91892916  0.28613857  1
  P  P21  1  0.13279058  0.99005644  0.21386143  1
  P  P22  1  0.13279058  0.64273414  0.91892916  1
  P  P23  1  0.36720942  0.28613857  0.50994356  1
  P  P24  1  0.49642935  0.20794101  0.08493070  1
  P  P25  1  0.87698969  0.08493070  0.08850136  1
  P  P26  1  0.62301031  0.71151167  0.20794101  1
  P  P27  1  0.62301031  0.41149864  0.41506930  1
  P  P28  1  0.87698969  0.29205899  0.78848833  1
  P  P29  1  0.00357065  0.08850136  0.71151167  1
  P  P30  1  0.00357065  0.41506930  0.29205899  1
  P  P31  1  0.49642935  0.78848833  0.41149864  1
  P  P32  1  0.50357065  0.79205899  0.91506930  1
  P  P33  1  0.12301031  0.91506930  0.91149864  1
  P  P34  1  0.37698969  0.28848833  0.79205899  1
  P  P35  1  0.37698969  0.58850136  0.58493070  1
  P  P36  1  0.12301031  0.70794101  0.21151167  1
  P  P37  1  0.99642935  0.91149864  0.28848833  1
  P  P38  1  0.99642935  0.58493070  0.70794101  1
  P  P39  1  0.50357065  0.21151167  0.58850136  1
  P  P40  1  0.84416988  0.34249107  0.34561446  1
  P  P41  1  0.00312339  0.34561446  0.00144458  1
  P  P42  1  0.49687661  0.49832119  0.34249107  1
  P  P43  1  0.49687661  0.49855542  0.15438554  1
  P  P44  1  0.00312339  0.15750893  0.00167881  1
  P  P45  1  0.65583012  0.00144458  0.49832119  1
  P  P46  1  0.65583012  0.15438554  0.15750893  1
  P  P47  1  0.84416988  0.00167881  0.49855542  1
  P  P48  1  0.15583012  0.65750893  0.65438554  1
  P  P49  1  0.99687661  0.65438554  0.99855542  1
  P  P50  1  0.50312339  0.50167881  0.65750893  1
  P  P51  1  0.50312339  0.50144458  0.84561446  1
  P  P52  1  0.99687661  0.84249107  0.99832119  1
  P  P53  1  0.34416988  0.99855542  0.50167881  1
  P  P54  1  0.34416988  0.84561446  0.84249107  1
  P  P55  1  0.15583012  0.99832119  0.50144458  1
  P  P56  1  0.04013003  0.25000000  0.29013003  1
  P  P57  1  0.04013003  0.29013003  0.75000000  1
  P  P58  1  0.45986997  0.20986997  0.25000000  1
  P  P59  1  0.45986997  0.75000000  0.20986997  1
  P  P60  1  0.95986997  0.75000000  0.70986997  1
  P  P61  1  0.95986997  0.70986997  0.25000000  1
  P  P62  1  0.54013003  0.79013003  0.75000000  1
  P  P63  1  0.54013003  0.25000000  0.79013003  1
