# generated using pymatgen
data_Y6UO12
_symmetry_space_group_name_H-M   'P 1'
_cell_length_a   6.59690866
_cell_length_b   6.59690866
_cell_length_c   6.59690866
_cell_angle_alpha   99.02344732
_cell_angle_beta   99.02344728
_cell_angle_gamma   99.02344732
_symmetry_Int_Tables_number   1
_chemical_formula_structural   Y6UO12
_chemical_formula_sum   'Y6 U1 O12'
_cell_volume   275.14294747
_cell_formula_units_Z   1
loop_
 _symmetry_equiv_pos_site_id
 _symmetry_equiv_pos_as_xyz
  1  'x, y, z'
loop_
 _atom_site_type_symbol
 _atom_site_label
 _atom_site_symmetry_multiplicity
 _atom_site_fract_x
 _atom_site_fract_y
 _atom_site_fract_z
 _atom_site_occupancy
  O  O0  1  0.42731003  0.17753186  0.58836386  1
  O  O1  1  0.17753186  0.58836386  0.42731003  1
  O  O2  1  0.58836386  0.42731003  0.17753186  1
  O  O3  1  0.57268997  0.82246814  0.41163614  1
  O  O4  1  0.82246814  0.41163614  0.57268997  1
  O  O5  1  0.41163614  0.57268997  0.82246814  1
  O  O6  1  0.04674965  0.91926420  0.69247743  1
  O  O7  1  0.30752257  0.95325035  0.08073580  1
  O  O8  1  0.08073580  0.30752257  0.95325035  1
  O  O9  1  0.95325035  0.08073580  0.30752257  1
  O  O10  1  0.69247743  0.04674965  0.91926420  1
  O  O11  1  0.91926420  0.69247743  0.04674965  1
  Y  Y12  1  0.67795486  0.39035672  0.85487745  1
  Y  Y13  1  0.39035672  0.85487745  0.67795486  1
  Y  Y14  1  0.85487745  0.67795486  0.39035672  1
  Y  Y15  1  0.32204514  0.60964328  0.14512255  1
  Y  Y16  1  0.60964328  0.14512255  0.32204514  1
  Y  Y17  1  0.14512255  0.32204514  0.60964328  1
  U  U18  1  0.00000000  0.00000000  0.00000000  1
