# generated using pymatgen
data_K2TeI6
_symmetry_space_group_name_H-M   'P 1'
_cell_length_a   8.20945742
_cell_length_b   8.50225936
_cell_length_c   11.69569676
_cell_angle_alpha   90.00000000
_cell_angle_beta   90.13376883
_cell_angle_gamma   90.00000000
_symmetry_Int_Tables_number   1
_chemical_formula_structural   K2TeI6
_chemical_formula_sum   'K4 Te2 I12'
_cell_volume   816.34496733
_cell_formula_units_Z   2
loop_
 _symmetry_equiv_pos_site_id
 _symmetry_equiv_pos_as_xyz
  1  'x, y, z'
loop_
 _atom_site_type_symbol
 _atom_site_label
 _atom_site_symmetry_multiplicity
 _atom_site_fract_x
 _atom_site_fract_y
 _atom_site_fract_z
 _atom_site_occupancy
  K  K0  1  0.02153520  0.57656816  0.74744002  1
  K  K1  1  0.47846480  0.07656816  0.75255998  1
  K  K2  1  0.97846480  0.42343184  0.25255998  1
  K  K3  1  0.52153520  0.92343184  0.24744002  1
  Te  Te4  1  0.00000000  0.00000000  0.00000000  1
  Te  Te5  1  0.50000000  0.50000000  0.50000000  1
  I  I6  1  0.91834420  0.99374756  0.75197260  1
  I  I7  1  0.58165580  0.49374756  0.74802740  1
  I  I8  1  0.08165580  0.00625244  0.24802740  1
  I  I9  1  0.41834420  0.50625244  0.25197260  1
  I  I10  1  0.79465806  0.69557738  0.45431181  1
  I  I11  1  0.70534194  0.19557738  0.04568819  1
  I  I12  1  0.20534194  0.30442262  0.54568819  1
  I  I13  1  0.29465806  0.80442262  0.95431181  1
  I  I14  1  0.80686605  0.70688558  0.03559556  1
  I  I15  1  0.69313395  0.20688558  0.46440444  1
  I  I16  1  0.19313395  0.29311442  0.96440444  1
  I  I17  1  0.30686605  0.79311442  0.53559556  1
