# generated using pymatgen
data_LiFe(PO3)4
_symmetry_space_group_name_H-M   'P 1'
_cell_length_a   7.22300593
_cell_length_b   9.51162019
_cell_length_c   7.22158542
_cell_angle_alpha   90.00000000
_cell_angle_beta   84.43576196
_cell_angle_gamma   90.00000000
_symmetry_Int_Tables_number   1
_chemical_formula_structural   LiFe(PO3)4
_chemical_formula_sum   'Li2 Fe2 P8 O24'
_cell_volume   493.80313401
_cell_formula_units_Z   2
loop_
 _symmetry_equiv_pos_site_id
 _symmetry_equiv_pos_as_xyz
  1  'x, y, z'
loop_
 _atom_site_type_symbol
 _atom_site_label
 _atom_site_symmetry_multiplicity
 _atom_site_fract_x
 _atom_site_fract_y
 _atom_site_fract_z
 _atom_site_occupancy
  Li  Li0  1  0.25227709  0.98297314  0.72604436  1
  Li  Li1  1  0.74772291  0.48297314  0.27395564  1
  Fe  Fe2  1  0.21371618  0.23967733  0.28794638  1
  Fe  Fe3  1  0.78628382  0.73967733  0.71205362  1
  P  P4  1  0.10353851  0.61633749  0.61377241  1
  P  P5  1  0.15371317  0.58273234  0.21012791  1
  P  P6  1  0.40927612  0.40242300  0.60997828  1
  P  P7  1  0.54231905  0.27953114  0.98453332  1
  P  P8  1  0.45768095  0.77953114  0.01546668  1
  P  P9  1  0.59072388  0.90242300  0.39002172  1
  P  P10  1  0.84628683  0.08273234  0.78987209  1
  P  P11  1  0.89646149  0.11633749  0.38622759  1
  O  O12  1  0.04020611  0.10307792  0.83598911  1
  O  O13  1  0.08999793  0.05167337  0.38684962  1
  O  O14  1  0.07789234  0.75428812  0.72074455  1
  O  O15  1  0.19214701  0.65379207  0.40886832  1
  O  O16  1  0.24823873  0.51404540  0.69797651  1
  O  O17  1  0.38091703  0.89253062  0.90647427  1
  O  O18  1  0.30133576  0.66670791  0.07846035  1
  O  O19  1  0.38292379  0.18942307  0.07765043  1
  O  O20  1  0.30610338  0.28149593  0.52511467  1
  O  O21  1  0.22539286  0.43365733  0.21543475  1
  O  O22  1  0.44384336  0.97892520  0.50461522  1
  O  O23  1  0.47879791  0.33943961  0.79388266  1
  O  O24  1  0.52120209  0.83943961  0.20611734  1
  O  O25  1  0.55615664  0.47892520  0.49538478  1
  O  O26  1  0.77460714  0.93365733  0.78456525  1
  O  O27  1  0.69389662  0.78149593  0.47488533  1
  O  O28  1  0.61707621  0.68942307  0.92234957  1
  O  O29  1  0.69866424  0.16670791  0.92153965  1
  O  O30  1  0.61908297  0.39253062  0.09352573  1
  O  O31  1  0.75176127  0.01404540  0.30202349  1
  O  O32  1  0.80785299  0.15379207  0.59113168  1
  O  O33  1  0.92210766  0.25428812  0.27925545  1
  O  O34  1  0.91000207  0.55167337  0.61315038  1
  O  O35  1  0.95979389  0.60307792  0.16401089  1
