# generated using pymatgen
data_KTlO
_symmetry_space_group_name_H-M   'P 1'
_cell_length_a   3.70559130
_cell_length_b   6.39049260
_cell_length_c   6.82465066
_cell_angle_alpha   106.33606575
_cell_angle_beta   105.75269894
_cell_angle_gamma   90.00000002
_symmetry_Int_Tables_number   1
_chemical_formula_structural   KTlO
_chemical_formula_sum   'K2 Tl2 O2'
_cell_volume   148.75127250
_cell_formula_units_Z   2
loop_
 _symmetry_equiv_pos_site_id
 _symmetry_equiv_pos_as_xyz
  1  'x, y, z'
loop_
 _atom_site_type_symbol
 _atom_site_label
 _atom_site_symmetry_multiplicity
 _atom_site_fract_x
 _atom_site_fract_y
 _atom_site_fract_z
 _atom_site_occupancy
  O  O0  1  0.74911867  0.21840880  0.49823734  1
  O  O1  1  0.25088133  0.78159120  0.50176266  1
  K  K2  1  0.13090759  0.34841491  0.26181518  1
  K  K3  1  0.86909241  0.65158509  0.73818482  1
  Tl  Tl4  1  0.63872068  0.84900082  0.27744136  1
  Tl  Tl5  1  0.36127932  0.15099918  0.72255864  1
