# generated using pymatgen
data_CrBr3
_symmetry_space_group_name_H-M   'P 1'
_cell_length_a   6.44606342
_cell_length_b   6.44606342
_cell_length_c   20.48523671
_cell_angle_alpha   90.00000000
_cell_angle_beta   90.00000000
_cell_angle_gamma   119.99999993
_symmetry_Int_Tables_number   1
_chemical_formula_structural   CrBr3
_chemical_formula_sum   'Cr6 Br18'
_cell_volume   737.15831171
_cell_formula_units_Z   6
loop_
 _symmetry_equiv_pos_site_id
 _symmetry_equiv_pos_as_xyz
  1  'x, y, z'
loop_
 _atom_site_type_symbol
 _atom_site_label
 _atom_site_symmetry_multiplicity
 _atom_site_fract_x
 _atom_site_fract_y
 _atom_site_fract_z
 _atom_site_occupancy
  Cr  Cr0  1  0.00000000  0.00000000  -0.00000312  1
  Cr  Cr1  1  0.00000000  0.00000000  0.66794092  1
  Cr  Cr2  1  0.33333333  0.66666667  0.33175633  1
  Cr  Cr3  1  0.33333333  0.66666667  0.00015412  1
  Cr  Cr4  1  0.66666667  0.33333333  0.66782838  1
  Cr  Cr5  1  0.66666667  0.33333333  0.33205675  1
  Br  Br6  1  0.30881868  0.33354403  0.93005785  1
  Br  Br7  1  0.66645597  0.97527466  0.93005785  1
  Br  Br8  1  0.02472534  0.69118132  0.93005785  1
  Br  Br9  1  0.66687910  0.69223231  0.07023473  1
  Br  Br10  1  0.30776769  0.97464679  0.07023473  1
  Br  Br11  1  0.02535321  0.33312090  0.07023473  1
  Br  Br12  1  0.35969281  0.35937110  0.26163052  1
  Br  Br13  1  0.64062890  0.00032171  0.26163052  1
  Br  Br14  1  0.99967829  0.64030719  0.26163052  1
  Br  Br15  1  0.64147391  0.64177924  0.40205035  1
  Br  Br16  1  0.35822076  0.99969468  0.40205035  1
  Br  Br17  1  0.00030532  0.35852609  0.40205035  1
  Br  Br18  1  0.33317240  0.30866601  0.59782186  1
  Br  Br19  1  0.69133399  0.02450638  0.59782186  1
  Br  Br20  1  0.97549362  0.66682760  0.59782186  1
  Br  Br21  1  0.69373781  0.66649375  0.73829357  1
  Br  Br22  1  0.33350625  0.02724406  0.73829357  1
  Br  Br23  1  0.97275594  0.30626219  0.73829357  1
