# generated using pymatgen
data_K2CdO2
_symmetry_space_group_name_H-M   'P 1'
_cell_length_a   6.30258730
_cell_length_b   6.28542476
_cell_length_c   10.14686647
_cell_angle_alpha   90.00000000
_cell_angle_beta   90.00000000
_cell_angle_gamma   90.00000000
_symmetry_Int_Tables_number   1
_chemical_formula_structural   K2CdO2
_chemical_formula_sum   'K8 Cd4 O8'
_cell_volume   401.96241538
_cell_formula_units_Z   4
loop_
 _symmetry_equiv_pos_site_id
 _symmetry_equiv_pos_as_xyz
  1  'x, y, z'
loop_
 _atom_site_type_symbol
 _atom_site_label
 _atom_site_symmetry_multiplicity
 _atom_site_fract_x
 _atom_site_fract_y
 _atom_site_fract_z
 _atom_site_occupancy
  O  O0  1  0.51968248  0.20094736  0.90092162  1
  O  O1  1  0.01968248  0.79905264  0.90092162  1
  O  O2  1  0.51968248  0.70094736  0.59907838  1
  O  O3  1  0.48031752  0.29905264  0.40092162  1
  O  O4  1  0.48031752  0.79905264  0.09907838  1
  O  O5  1  0.98031752  0.20094736  0.09907838  1
  O  O6  1  0.01968248  0.29905264  0.59907838  1
  O  O7  1  0.98031752  0.70094736  0.40092162  1
  K  K8  1  0.39148531  0.10293880  0.65579501  1
  K  K9  1  0.60851469  0.39706120  0.15579501  1
  K  K10  1  0.89148531  0.89706120  0.65579501  1
  K  K11  1  0.10851469  0.60293880  0.15579501  1
  K  K12  1  0.60851469  0.89706120  0.34420499  1
  K  K13  1  0.39148531  0.60293880  0.84420499  1
  K  K14  1  0.89148531  0.39706120  0.84420499  1
  K  K15  1  0.10851469  0.10293880  0.34420499  1
  Cd  Cd16  1  0.75000000  0.46209607  0.50000000  1
  Cd  Cd17  1  0.25000000  0.53790393  0.50000000  1
  Cd  Cd18  1  0.75000000  0.96209607  0.00000000  1
  Cd  Cd19  1  0.25000000  0.03790393  0.00000000  1
