# generated using pymatgen
data_GaSbCl6
_symmetry_space_group_name_H-M   'P 1'
_cell_length_a   7.93172437
_cell_length_b   10.65693224
_cell_length_c   13.65060030
_cell_angle_alpha   102.07651507
_cell_angle_beta   90.00000000
_cell_angle_gamma   90.00000000
_symmetry_Int_Tables_number   1
_chemical_formula_structural   GaSbCl6
_chemical_formula_sum   'Ga4 Sb4 Cl24'
_cell_volume   1128.31998513
_cell_formula_units_Z   4
loop_
 _symmetry_equiv_pos_site_id
 _symmetry_equiv_pos_as_xyz
  1  'x, y, z'
loop_
 _atom_site_type_symbol
 _atom_site_label
 _atom_site_symmetry_multiplicity
 _atom_site_fract_x
 _atom_site_fract_y
 _atom_site_fract_z
 _atom_site_occupancy
  Cl  Cl0  1  0.66396129  0.95816441  0.09456414  1
  Cl  Cl1  1  0.16396129  0.04183559  0.40543586  1
  Cl  Cl2  1  0.33603871  0.04183559  0.90543586  1
  Cl  Cl3  1  0.83603871  0.95816441  0.59456414  1
  Cl  Cl4  1  0.81358089  0.81976392  0.29519720  1
  Cl  Cl5  1  0.31358089  0.18023608  0.20480280  1
  Cl  Cl6  1  0.18641911  0.18023608  0.70480280  1
  Cl  Cl7  1  0.68641911  0.81976392  0.79519720  1
  Cl  Cl8  1  0.41581293  0.74264034  0.20518583  1
  Cl  Cl9  1  0.91581293  0.25735966  0.29481417  1
  Cl  Cl10  1  0.58418707  0.25735966  0.79481417  1
  Cl  Cl11  1  0.08418707  0.74264034  0.70518583  1
  Cl  Cl12  1  0.38099054  0.61997989  0.94085650  1
  Cl  Cl13  1  0.88099054  0.38002011  0.55914350  1
  Cl  Cl14  1  0.61900946  0.38002011  0.05914350  1
  Cl  Cl15  1  0.11900946  0.61997989  0.44085650  1
  Cl  Cl16  1  0.89670559  0.49641670  0.87583726  1
  Cl  Cl17  1  0.39670559  0.50358330  0.62416274  1
  Cl  Cl18  1  0.10329441  0.50358330  0.12416274  1
  Cl  Cl19  1  0.60329441  0.49641670  0.37583726  1
  Cl  Cl20  1  0.05384235  0.81888819  0.06988660  1
  Cl  Cl21  1  0.55384235  0.18111181  0.43011340  1
  Cl  Cl22  1  0.94615765  0.18111181  0.93011340  1
  Cl  Cl23  1  0.44615765  0.81888819  0.56988660  1
  Ga  Ga24  1  0.76358743  0.34104578  0.92148219  1
  Ga  Ga25  1  0.26358743  0.65895422  0.57851781  1
  Ga  Ga26  1  0.23641257  0.65895422  0.07851781  1
  Ga  Ga27  1  0.73641257  0.34104578  0.42148219  1
  Sb  Sb28  1  0.23242649  0.24443429  0.37371395  1
  Sb  Sb29  1  0.73242649  0.75556571  0.12628605  1
  Sb  Sb30  1  0.76757351  0.75556571  0.62628605  1
  Sb  Sb31  1  0.26757351  0.24443429  0.87371395  1
