# generated using pymatgen
data_As2S2O9
_symmetry_space_group_name_H-M   'P 1'
_cell_length_a   6.85129167
_cell_length_b   6.76258846
_cell_length_c   17.58962431
_cell_angle_alpha   90.00000000
_cell_angle_beta   96.24649388
_cell_angle_gamma   90.00000000
_symmetry_Int_Tables_number   1
_chemical_formula_structural   As2S2O9
_chemical_formula_sum   'As8 S8 O36'
_cell_volume   810.13218751
_cell_formula_units_Z   4
loop_
 _symmetry_equiv_pos_site_id
 _symmetry_equiv_pos_as_xyz
  1  'x, y, z'
loop_
 _atom_site_type_symbol
 _atom_site_label
 _atom_site_symmetry_multiplicity
 _atom_site_fract_x
 _atom_site_fract_y
 _atom_site_fract_z
 _atom_site_occupancy
  O  O0  1  0.22231603  0.15149394  0.75333613  1
  O  O1  1  0.22231603  0.84850606  0.25333613  1
  O  O2  1  0.55309259  0.01080420  0.78524587  1
  O  O3  1  0.55309259  0.98919580  0.28524587  1
  O  O4  1  0.41999851  0.23756557  0.87293622  1
  O  O5  1  0.41999851  0.76243443  0.37293622  1
  O  O6  1  0.52147509  0.35119415  0.74842342  1
  O  O7  1  0.52147509  0.64880585  0.24842342  1
  O  O8  1  0.91407336  0.33309528  0.87837590  1
  O  O9  1  0.91407336  0.66690472  0.37837590  1
  O  O10  1  0.99812910  0.65903532  0.93405472  1
  O  O11  1  0.99812910  0.34096468  0.43405472  1
  O  O12  1  0.67780498  0.52029519  0.94653153  1
  O  O13  1  0.67780498  0.47970481  0.44653153  1
  O  O14  1  0.76689017  0.63800737  0.82083523  1
  O  O15  1  0.76689017  0.36199263  0.32083523  1
  O  O16  1  0.03088048  0.86307494  0.08869249  1
  O  O17  1  0.03088048  0.13692506  0.58869249  1
  O  O18  1  0.36861997  0.36662596  0.33860382  1
  O  O19  1  0.36861997  0.63337404  0.83860382  1
  O  O20  1  0.72251836  0.97831667  0.98095940  1
  O  O21  1  0.72251836  0.02168333  0.48095940  1
  O  O22  1  0.63351159  0.87015336  0.10797485  1
  O  O23  1  0.63351159  0.12984664  0.60797485  1
  O  O24  1  0.40172031  0.84322903  0.99491659  1
  O  O25  1  0.40172031  0.15677097  0.49491659  1
  O  O26  1  0.48800421  0.17191802  0.04774975  1
  O  O27  1  0.48800421  0.82808198  0.54774975  1
  O  O28  1  0.97853819  0.25971662  0.05538683  1
  O  O29  1  0.97853819  0.74028338  0.55538683  1
  O  O30  1  0.89230664  0.14653224  0.18237335  1
  O  O31  1  0.89230664  0.85346776  0.68237335  1
  O  O32  1  0.84276203  0.48453487  0.14321441  1
  O  O33  1  0.84276203  0.51546513  0.64321441  1
  O  O34  1  0.18014406  0.35891622  0.17242766  1
  O  O35  1  0.18014406  0.64108378  0.67242766  1
  S  S36  1  0.42153797  0.17822558  0.78752685  1
  S  S37  1  0.42153797  0.82177442  0.28752685  1
  S  S38  1  0.85030421  0.52999877  0.89506303  1
  S  S39  1  0.85030421  0.47000123  0.39506303  1
  S  S40  1  0.98046492  0.67770706  0.64050727  1
  S  S41  1  0.98046492  0.32229294  0.14050727  1
  S  S42  1  0.55028583  0.02661725  0.53265462  1
  S  S43  1  0.55028583  0.97338275  0.03265462  1
  As  As44  1  0.40364262  0.48822556  0.92422329  1
  As  As45  1  0.40364262  0.51177444  0.42422329  1
  As  As46  1  0.51617005  0.63485087  0.76020830  1
  As  As47  1  0.51617005  0.36514913  0.26020830  1
  As  As48  1  0.88562225  0.13558175  0.66769859  1
  As  As49  1  0.88562225  0.86441825  0.16769859  1
  As  As50  1  -0.00331351  0.99049815  0.50347990  1
  As  As51  1  -0.00331351  0.00950185  1.00347990  1
