# generated using pymatgen
data_Re2P5
_symmetry_space_group_name_H-M   'P 1'
_cell_length_a   7.38376075
_cell_length_b   8.28593573
_cell_length_c   8.39983094
_cell_angle_alpha   69.77510104
_cell_angle_beta   67.79915875
_cell_angle_gamma   87.06696663
_symmetry_Int_Tables_number   1
_chemical_formula_structural   Re2P5
_chemical_formula_sum   'Re8 P20'
_cell_volume   444.60561227
_cell_formula_units_Z   4
loop_
 _symmetry_equiv_pos_site_id
 _symmetry_equiv_pos_as_xyz
  1  'x, y, z'
loop_
 _atom_site_type_symbol
 _atom_site_label
 _atom_site_symmetry_multiplicity
 _atom_site_fract_x
 _atom_site_fract_y
 _atom_site_fract_z
 _atom_site_occupancy
  P  P0  1  0.02333284  0.78126078  0.16848060  1
  P  P1  1  0.97666716  0.21873922  0.83151940  1
  P  P2  1  0.72932919  0.15698042  0.25974060  1
  P  P3  1  0.27067081  0.84301958  0.74025940  1
  P  P4  1  0.53455115  0.30696512  0.94461226  1
  P  P5  1  0.46544885  0.69303488  0.05538774  1
  P  P6  1  0.71885856  0.74736101  0.59554752  1
  P  P7  1  0.28114144  0.25263899  0.40445248  1
  P  P8  1  0.86342933  0.95978321  0.63211981  1
  P  P9  1  0.13657067  0.04021679  0.36788019  1
  P  P10  1  0.68035205  0.16529271  0.53525848  1
  P  P11  1  0.31964795  0.83470729  0.46474152  1
  P  P12  1  0.60170393  0.91523444  0.04657037  1
  P  P13  1  0.39829607  0.08476556  0.95342963  1
  P  P14  1  0.16078918  0.58311943  0.52077091  1
  P  P15  1  0.83921082  0.41688057  0.47922909  1
  P  P16  1  0.37566848  0.45109747  0.63667816  1
  P  P17  1  0.62433152  0.54890253  0.36332184  1
  P  P18  1  0.89258876  0.58538172  0.95206738  1
  P  P19  1  0.10741124  0.41461828  0.04793262  1
  Re  Re20  1  0.57429695  0.42192231  0.14275822  1
  Re  Re21  1  0.42570305  0.57807769  0.85724178  1
  Re  Re22  1  0.05648548  0.08833170  0.09779698  1
  Re  Re23  1  0.94351452  0.91166830  0.90220302  1
  Re  Re24  1  0.17843423  0.51986468  0.25046580  1
  Re  Re25  1  0.82156577  0.48013532  0.74953420  1
  Re  Re26  1  0.69606448  0.85816391  0.29036826  1
  Re  Re27  1  0.30393552  0.14183609  0.70963174  1
