# generated using pymatgen
data_Na6Ge2S7
_symmetry_space_group_name_H-M   'P 1'
_cell_length_a   7.00059122
_cell_length_b   7.00059122
_cell_length_c   15.24210070
_cell_angle_alpha   99.62284336
_cell_angle_beta   99.62284335
_cell_angle_gamma   98.01633600
_symmetry_Int_Tables_number   1
_chemical_formula_structural   Na6Ge2S7
_chemical_formula_sum   'Na12 Ge4 S14'
_cell_volume   715.26786187
_cell_formula_units_Z   2
loop_
 _symmetry_equiv_pos_site_id
 _symmetry_equiv_pos_as_xyz
  1  'x, y, z'
loop_
 _atom_site_type_symbol
 _atom_site_label
 _atom_site_symmetry_multiplicity
 _atom_site_fract_x
 _atom_site_fract_y
 _atom_site_fract_z
 _atom_site_occupancy
  Na  Na0  1  0.23902020  0.03159108  0.42647542  1
  Na  Na1  1  0.46840892  0.26097980  0.07352458  1
  Na  Na2  1  0.76097980  0.96840892  0.57352458  1
  Na  Na3  1  0.53159108  0.73902020  0.92647542  1
  Na  Na4  1  0.54738119  0.49180253  0.63884344  1
  Na  Na5  1  0.00819747  0.95261881  0.86115656  1
  Na  Na6  1  0.92133772  0.57866228  0.25000000  1
  Na  Na7  1  0.07866228  0.42133772  0.75000000  1
  Na  Na8  1  0.00000000  0.50000000  0.00000000  1
  Na  Na9  1  0.00000000  0.50000000  0.50000000  1
  Na  Na10  1  0.45261881  0.50819747  0.36115656  1
  Na  Na11  1  0.99180253  0.04738119  0.13884344  1
  S  S12  1  0.19126867  0.20501338  0.60576399  1
  S  S13  1  0.80873133  0.79498662  0.39423601  1
  S  S14  1  0.75989821  0.13433946  0.97140928  1
  S  S15  1  0.36566054  0.74010179  0.52859072  1
  S  S16  1  0.24010179  0.86566054  0.02859072  1
  S  S17  1  0.63433946  0.25989821  0.47140928  1
  S  S18  1  0.99289799  0.24271667  0.32015074  1
  S  S19  1  0.25728333  0.50710201  0.17984926  1
  S  S20  1  0.00710201  0.75728333  0.67984926  1
  S  S21  1  0.74271667  0.49289799  0.82015074  1
  S  S22  1  0.46156367  0.03843633  0.25000000  1
  S  S23  1  0.53843633  0.96156367  0.75000000  1
  S  S24  1  0.70501338  0.69126867  0.10576399  1
  S  S25  1  0.29498662  0.30873133  0.89423601  1
  Ge  Ge26  1  0.42475070  0.76194507  0.13987325  1
  Ge  Ge27  1  0.73805493  0.07524930  0.36012675  1
  Ge  Ge28  1  0.57524930  0.23805493  0.86012675  1
  Ge  Ge29  1  0.26194507  0.92475070  0.63987325  1
