# generated using pymatgen
data_BiF5
_symmetry_space_group_name_H-M   'P 1'
_cell_length_a   4.35495586
_cell_length_b   5.35329794
_cell_length_c   5.35329794
_cell_angle_alpha   80.47666905
_cell_angle_beta   65.99888124
_cell_angle_gamma   65.99888115
_symmetry_Int_Tables_number   1
_chemical_formula_structural   BiF5
_chemical_formula_sum   'Bi1 F5'
_cell_volume   104.15481721
_cell_formula_units_Z   1
loop_
 _symmetry_equiv_pos_site_id
 _symmetry_equiv_pos_as_xyz
  1  'x, y, z'
loop_
 _atom_site_type_symbol
 _atom_site_label
 _atom_site_symmetry_multiplicity
 _atom_site_fract_x
 _atom_site_fract_y
 _atom_site_fract_z
 _atom_site_occupancy
  F  F0  1  0.72456513  0.18183647  0.36903326  1
  F  F1  1  0.50000000  0.00000000  0.00000000  1
  F  F2  1  0.27543487  0.81816353  0.63096674  1
  F  F3  1  0.90640161  0.36903326  0.81816353  1
  F  F4  1  0.09359839  0.63096674  0.18183647  1
  Bi  Bi5  1  0.00000000  0.00000000  0.00000000  1
