# generated using pymatgen
data_RhCl3
_symmetry_space_group_name_H-M   'P 1'
_cell_length_a   6.09091390
_cell_length_b   6.09091389
_cell_length_c   6.52089839
_cell_angle_alpha   98.95757980
_cell_angle_beta   98.95757978
_cell_angle_gamma   119.97722094
_symmetry_Int_Tables_number   1
_chemical_formula_structural   RhCl3
_chemical_formula_sum   'Rh2 Cl6'
_cell_volume   199.14473263
_cell_formula_units_Z   2
loop_
 _symmetry_equiv_pos_site_id
 _symmetry_equiv_pos_as_xyz
  1  'x, y, z'
loop_
 _atom_site_type_symbol
 _atom_site_label
 _atom_site_symmetry_multiplicity
 _atom_site_fract_x
 _atom_site_fract_y
 _atom_site_fract_z
 _atom_site_occupancy
  Cl  Cl0  1  0.92437893  0.57060367  0.21186033  1
  Cl  Cl1  1  0.42939633  0.07562107  0.78813967  1
  Cl  Cl2  1  0.78316287  0.78316287  0.78769741  1
  Cl  Cl3  1  0.21683713  0.21683713  0.21230259  1
  Cl  Cl4  1  0.57060367  0.92437893  0.21186033  1
  Cl  Cl5  1  0.07562107  0.42939633  0.78813967  1
  Rh  Rh6  1  0.16668282  0.83331718  0.00000000  1
  Rh  Rh7  1  0.83331718  0.16668282  0.00000000  1
