# generated using pymatgen
data_Li2Ti3V3O12
_symmetry_space_group_name_H-M   'P 1'
_cell_length_a   6.08050676
_cell_length_b   7.98063156
_cell_length_c   5.19289413
_cell_angle_alpha   76.66266604
_cell_angle_beta   73.43105167
_cell_angle_gamma   77.25769129
_symmetry_Int_Tables_number   1
_chemical_formula_structural   Li2Ti3V3O12
_chemical_formula_sum   'Li2 Ti3 V3 O12'
_cell_volume   231.75491037
_cell_formula_units_Z   1
loop_
 _symmetry_equiv_pos_site_id
 _symmetry_equiv_pos_as_xyz
  1  'x, y, z'
loop_
 _atom_site_type_symbol
 _atom_site_label
 _atom_site_symmetry_multiplicity
 _atom_site_fract_x
 _atom_site_fract_y
 _atom_site_fract_z
 _atom_site_occupancy
  Li  Li0  1  0.50000000  0.50000000  0.50000000  1
  Li  Li1  1  0.00000000  0.00000000  0.00000000  1
  Ti  Ti2  1  0.67695704  0.83526866  0.50270012  1
  Ti  Ti3  1  0.32304296  0.16473134  0.49729988  1
  Ti  Ti4  1  0.00000000  0.50000000  0.50000000  1
  V  V5  1  0.83692868  0.66552156  0.99421442  1
  V  V6  1  0.50000000  0.00000000  0.00000000  1
  V  V7  1  0.16307132  0.33447844  0.00578558  1
  O  O8  1  0.80018432  0.90580453  0.76298643  1
  O  O9  1  0.96663115  0.74243027  0.27129782  1
  O  O10  1  0.69501381  0.59867391  0.71267726  1
  O  O11  1  0.36158887  0.93560261  0.73837310  1
  O  O12  1  0.85901192  0.43666417  0.24661532  1
  O  O13  1  0.53113262  0.77370669  0.23185487  1
  O  O14  1  0.46886738  0.22629331  0.76814513  1
  O  O15  1  0.14098808  0.56333583  0.75338468  1
  O  O16  1  0.63841113  0.06439739  0.26162690  1
  O  O17  1  0.30498619  0.40132609  0.28732274  1
  O  O18  1  0.03336885  0.25756973  0.72870218  1
  O  O19  1  0.19981568  0.09419547  0.23701357  1
