# generated using pymatgen
data_Nb3Br8
_symmetry_space_group_name_H-M   'P 1'
_cell_length_a   14.67668774
_cell_length_b   14.67668774
_cell_length_c   14.67668773
_cell_angle_alpha   28.31728171
_cell_angle_beta   28.31728171
_cell_angle_gamma   28.31728171
_symmetry_Int_Tables_number   1
_chemical_formula_structural   Nb3Br8
_chemical_formula_sum   'Nb6 Br16'
_cell_volume   628.58052983
_cell_formula_units_Z   2
loop_
 _symmetry_equiv_pos_site_id
 _symmetry_equiv_pos_as_xyz
  1  'x, y, z'
loop_
 _atom_site_type_symbol
 _atom_site_label
 _atom_site_symmetry_multiplicity
 _atom_site_fract_x
 _atom_site_fract_y
 _atom_site_fract_z
 _atom_site_occupancy
  Br  Br0  1  0.63112931  0.63112931  0.63112931  1
  Br  Br1  1  0.36887069  0.36887069  0.36887069  1
  Br  Br2  1  0.78248247  0.78248247  0.78248247  1
  Br  Br3  1  0.21751753  0.21751753  0.21751753  1
  Br  Br4  1  0.11675741  0.11675741  0.62127417  1
  Br  Br5  1  0.11675741  0.62127417  0.11675741  1
  Br  Br6  1  0.29333863  0.78664939  0.29333863  1
  Br  Br7  1  0.29333863  0.29333863  0.78664939  1
  Br  Br8  1  0.78664939  0.29333863  0.29333863  1
  Br  Br9  1  0.21335061  0.70666137  0.70666137  1
  Br  Br10  1  0.70666137  0.21335061  0.70666137  1
  Br  Br11  1  0.70666137  0.70666137  0.21335061  1
  Br  Br12  1  0.88324259  0.37872583  0.88324259  1
  Br  Br13  1  0.88324259  0.88324259  0.37872583  1
  Br  Br14  1  0.37872583  0.88324259  0.88324259  1
  Br  Br15  1  0.62127417  0.11675741  0.11675741  1
  Nb  Nb16  1  0.44944099  0.44944099  0.85340602  1
  Nb  Nb17  1  0.44944099  0.85340602  0.44944099  1
  Nb  Nb18  1  0.85340602  0.44944099  0.44944099  1
  Nb  Nb19  1  0.14659398  0.55055901  0.55055901  1
  Nb  Nb20  1  0.55055901  0.55055901  0.14659398  1
  Nb  Nb21  1  0.55055901  0.14659398  0.55055901  1
