# generated using pymatgen
data_In2(PS3)3
_symmetry_space_group_name_H-M   'P 1'
_cell_length_a   7.41102051
_cell_length_b   10.68509846
_cell_length_c   17.96087809
_cell_angle_alpha   90.00000000
_cell_angle_beta   97.19705444
_cell_angle_gamma   90.00000000
_symmetry_Int_Tables_number   1
_chemical_formula_structural   In2(PS3)3
_chemical_formula_sum   'In8 P12 S36'
_cell_volume   1411.07082906
_cell_formula_units_Z   4
loop_
 _symmetry_equiv_pos_site_id
 _symmetry_equiv_pos_as_xyz
  1  'x, y, z'
loop_
 _atom_site_type_symbol
 _atom_site_label
 _atom_site_symmetry_multiplicity
 _atom_site_fract_x
 _atom_site_fract_y
 _atom_site_fract_z
 _atom_site_occupancy
  P  P0  1  0.14356472  0.99621969  0.98589751  1
  P  P1  1  0.30422258  0.50851323  0.14757285  1
  P  P2  1  0.19577742  0.00851323  0.35242715  1
  P  P3  1  0.69577742  0.49148677  0.85242715  1
  P  P4  1  0.80422258  0.99148677  0.64757285  1
  P  P5  1  0.47480279  0.01353215  0.31605942  1
  P  P6  1  0.02519721  0.51353215  0.18394058  1
  P  P7  1  0.52519721  0.98646785  0.68394058  1
  P  P8  1  0.97480279  0.48646785  0.81605942  1
  P  P9  1  0.35643528  0.49621969  0.51410249  1
  P  P10  1  0.85643528  0.00378031  0.01410249  1
  P  P11  1  0.64356472  0.50378031  0.48589751  1
  S  S12  1  0.31516199  0.67320085  0.08713875  1
  S  S13  1  0.34516766  0.65580696  0.57877813  1
  S  S14  1  0.15483234  0.15580696  0.92122187  1
  S  S15  1  0.65483234  0.34419304  0.42122187  1
  S  S16  1  0.84516766  0.84419304  0.07877813  1
  S  S17  1  0.81516199  0.82679915  0.58713875  1
  S  S18  1  0.68483801  0.32679915  0.91286125  1
  S  S19  1  0.18483801  0.17320085  0.41286125  1
  S  S20  1  0.81282996  0.49076959  0.58262830  1
  S  S21  1  0.68717004  0.99076959  0.91737170  1
  S  S22  1  0.18717004  0.50923041  0.41737170  1
  S  S23  1  0.31282996  0.00923041  0.08262830  1
  S  S24  1  0.16044713  0.84528369  0.91862740  1
  S  S25  1  0.33955287  0.34528369  0.58137260  1
  S  S26  1  0.83955287  0.15471631  0.08137260  1
  S  S27  1  0.66044713  0.65471631  0.41862740  1
  S  S28  1  0.67231716  0.64927727  0.91292689  1
  S  S29  1  0.82768284  0.14927727  0.58707311  1
  S  S30  1  0.32768284  0.35072273  0.08707311  1
  S  S31  1  0.17231716  0.85072273  0.41292689  1
  S  S32  1  0.98145308  0.98510443  0.74251038  1
  S  S33  1  0.51854692  0.48510443  0.75748962  1
  S  S34  1  0.01854692  0.01489557  0.25748962  1
  S  S35  1  0.48145308  0.51489557  0.24251038  1
  S  S36  1  0.49918197  0.82585540  0.74060291  1
  S  S37  1  0.00081803  0.32585540  0.75939709  1
  S  S38  1  0.50081803  0.17414460  0.25939709  1
  S  S39  1  0.99918197  0.67414460  0.24060291  1
  S  S40  1  0.00052522  0.64425319  0.75645857  1
  S  S41  1  0.49947478  0.14425319  0.74354143  1
  S  S42  1  0.99947478  0.35574681  0.24354143  1
  S  S43  1  0.50052522  0.85574681  0.25645857  1
  S  S44  1  0.14611174  0.49542903  0.91736547  1
  S  S45  1  0.35388826  0.99542903  0.58263453  1
  S  S46  1  0.85388826  0.50457097  0.08263453  1
  S  S47  1  0.64611174  0.00457097  0.41736547  1
  In  In48  1  0.17717607  0.85164087  0.17592931  1
  In  In49  1  0.32282393  0.35164087  0.32407069  1
  In  In50  1  0.82282393  0.14835913  0.82407069  1
  In  In51  1  0.67717607  0.64835913  0.67592931  1
  In  In52  1  0.49143929  0.82100157  0.48974866  1
  In  In53  1  0.00856071  0.32100157  0.01025134  1
  In  In54  1  0.50856071  0.17899843  0.51025134  1
  In  In55  1  0.99143929  0.67899843  0.98974866  1
