# generated using pymatgen
data_K4I2O9
_symmetry_space_group_name_H-M   'P 1'
_cell_length_a   6.29357493
_cell_length_b   6.29357493
_cell_length_c   15.71482239
_cell_angle_alpha   90.00000000
_cell_angle_beta   90.00000000
_cell_angle_gamma   120.00000004
_symmetry_Int_Tables_number   1
_chemical_formula_structural   K4I2O9
_chemical_formula_sum   'K8 I4 O18'
_cell_volume   539.05728922
_cell_formula_units_Z   2
loop_
 _symmetry_equiv_pos_site_id
 _symmetry_equiv_pos_as_xyz
  1  'x, y, z'
loop_
 _atom_site_type_symbol
 _atom_site_label
 _atom_site_symmetry_multiplicity
 _atom_site_fract_x
 _atom_site_fract_y
 _atom_site_fract_z
 _atom_site_occupancy
  O  O0  1  0.18632998  0.81367002  0.89827264  1
  O  O1  1  0.18632998  0.37265995  0.89827264  1
  O  O2  1  0.62734005  0.81367002  0.89827264  1
  O  O3  1  0.37265995  0.18632998  0.39827264  1
  O  O4  1  0.81367002  0.62734005  0.10172736  1
  O  O5  1  0.81367002  0.18632998  0.39827264  1
  O  O6  1  0.81367002  0.62734005  0.39827264  1
  O  O7  1  0.18632998  0.81367002  0.60172736  1
  O  O8  1  0.62734005  0.81367002  0.60172736  1
  O  O9  1  0.37265995  0.18632998  0.10172736  1
  O  O10  1  0.81367002  0.18632998  0.10172736  1
  O  O11  1  0.18632998  0.37265995  0.60172736  1
  O  O12  1  0.53366561  0.06733122  0.25000000  1
  O  O13  1  0.46633439  0.53366561  0.75000000  1
  O  O14  1  0.06733122  0.53366561  0.75000000  1
  O  O15  1  0.93266878  0.46633439  0.25000000  1
  O  O16  1  0.53366561  0.46633439  0.25000000  1
  O  O17  1  0.46633439  0.93266878  0.75000000  1
  K  K18  1  0.00000000  0.00000000  0.00000000  1
  K  K19  1  0.00000000  0.00000000  0.50000000  1
  K  K20  1  0.00000000  0.00000000  0.25000000  1
  K  K21  1  0.00000000  0.00000000  0.75000000  1
  K  K22  1  0.33333333  0.66666667  0.40886176  1
  K  K23  1  0.66666667  0.33333333  0.90886176  1
  K  K24  1  0.66666667  0.33333333  0.59113824  1
  K  K25  1  0.33333333  0.66666667  0.09113824  1
  I  I26  1  0.33333333  0.66666667  0.65749646  1
  I  I27  1  0.66666667  0.33333333  0.15749646  1
  I  I28  1  0.66666667  0.33333333  0.34250354  1
  I  I29  1  0.33333333  0.66666667  0.84250354  1
