# generated using pymatgen
data_LiFeP2O7
_symmetry_space_group_name_H-M   'P 1'
_cell_length_a   7.26896538
_cell_length_b   8.12090316
_cell_length_c   9.61627961
_cell_angle_alpha   90.00000000
_cell_angle_beta   106.06382014
_cell_angle_gamma   90.00000000
_symmetry_Int_Tables_number   1
_chemical_formula_structural   LiFeP2O7
_chemical_formula_sum   'Li4 Fe4 P8 O28'
_cell_volume   545.48981682
_cell_formula_units_Z   4
loop_
 _symmetry_equiv_pos_site_id
 _symmetry_equiv_pos_as_xyz
  1  'x, y, z'
loop_
 _atom_site_type_symbol
 _atom_site_label
 _atom_site_symmetry_multiplicity
 _atom_site_fract_x
 _atom_site_fract_y
 _atom_site_fract_z
 _atom_site_occupancy
  Li  Li0  1  0.30635065  0.48086068  0.79069475  1
  Li  Li1  1  0.30635065  0.01913932  0.29069475  1
  Li  Li2  1  0.69364935  0.98086068  0.70930525  1
  Li  Li3  1  0.69364935  0.51913932  0.20930525  1
  Fe  Fe4  1  0.30397311  0.93625098  0.76067197  1
  Fe  Fe5  1  0.30397311  0.56374902  0.26067197  1
  Fe  Fe6  1  0.69602689  0.43625098  0.73932803  1
  Fe  Fe7  1  0.69602689  0.06374902  0.23932803  1
  P  P8  1  0.10882708  0.74348613  0.96148157  1
  P  P9  1  0.10882708  0.75651387  0.46148157  1
  P  P10  1  0.32407927  0.23892418  0.54775294  1
  P  P11  1  0.67592073  0.73892418  0.95224706  1
  P  P12  1  0.32407927  0.26107582  0.04775294  1
  P  P13  1  0.67592073  0.76107582  0.45224706  1
  P  P14  1  0.89117292  0.24348613  0.53851843  1
  P  P15  1  0.89117292  0.25651387  0.03851843  1
  O  O16  1  0.83048357  0.40571505  0.59860690  1
  O  O17  1  0.13918669  0.58984921  0.88411579  1
  O  O18  1  0.11693212  0.27379070  0.56747870  1
  O  O19  1  0.32671689  0.26433716  0.89314159  1
  O  O20  1  0.19656205  0.76106770  0.62791792  1
  O  O21  1  0.83048357  0.09428495  0.09860690  1
  O  O22  1  0.13918669  0.91015079  0.38411579  1
  O  O23  1  0.43816515  0.38543231  0.63556743  1
  O  O24  1  0.11693212  0.22620930  0.06747870  1
  O  O25  1  0.60309016  0.57852969  0.86538204  1
  O  O26  1  0.32671689  0.23566284  0.39314159  1
  O  O27  1  0.19656205  0.73893230  0.12791792  1
  O  O28  1  0.39690984  0.07852969  0.63461796  1
  O  O29  1  0.56183485  0.88543231  0.86443257  1
  O  O30  1  0.43816515  0.11456769  0.13556743  1
  O  O31  1  0.60309016  0.92147031  0.36538204  1
  O  O32  1  0.80343795  0.26106770  0.87208208  1
  O  O33  1  0.67328311  0.76433716  0.60685841  1
  O  O34  1  0.39690984  0.42147031  0.13461796  1
  O  O35  1  0.88306788  0.77379070  0.93252130  1
  O  O36  1  0.56183485  0.61456769  0.36443257  1
  O  O37  1  0.86081331  0.08984921  0.61588421  1
  O  O38  1  0.16951643  0.90571505  0.90139310  1
  O  O39  1  0.80343795  0.23893230  0.37208208  1
  O  O40  1  0.67328311  0.73566284  0.10685841  1
  O  O41  1  0.88306788  0.72620930  0.43252130  1
  O  O42  1  0.86081331  0.41015079  0.11588421  1
  O  O43  1  0.16951643  0.59428495  0.40139310  1
