# generated using pymatgen
data_TcCl4
_symmetry_space_group_name_H-M   'P 1'
_cell_length_a   6.15182454
_cell_length_b   13.21356595
_cell_length_c   15.44137941
_cell_angle_alpha   90.00000000
_cell_angle_beta   90.00000000
_cell_angle_gamma   90.00000000
_symmetry_Int_Tables_number   1
_chemical_formula_structural   TcCl4
_chemical_formula_sum   'Tc8 Cl32'
_cell_volume   1255.19173521
_cell_formula_units_Z   8
loop_
 _symmetry_equiv_pos_site_id
 _symmetry_equiv_pos_as_xyz
  1  'x, y, z'
loop_
 _atom_site_type_symbol
 _atom_site_label
 _atom_site_symmetry_multiplicity
 _atom_site_fract_x
 _atom_site_fract_y
 _atom_site_fract_z
 _atom_site_occupancy
  Cl  Cl0  1  0.75677844  0.52023401  0.41465001  1
  Cl  Cl1  1  0.25677844  0.97976599  0.58534999  1
  Cl  Cl2  1  0.24322156  0.02023401  0.08534999  1
  Cl  Cl3  1  0.74322156  0.47976599  0.91465001  1
  Cl  Cl4  1  0.24322156  0.47976599  0.58534999  1
  Cl  Cl5  1  0.74322156  0.02023401  0.41465001  1
  Cl  Cl6  1  0.75677844  0.97976599  0.91465001  1
  Cl  Cl7  1  0.25677844  0.52023401  0.08534999  1
  Cl  Cl8  1  0.57270085  0.72866517  0.30266135  1
  Cl  Cl9  1  0.07270085  0.77133483  0.69733865  1
  Cl  Cl10  1  0.42729915  0.22866517  0.19733865  1
  Cl  Cl11  1  0.92729915  0.27133483  0.80266135  1
  Cl  Cl12  1  0.42729915  0.27133483  0.69733865  1
  Cl  Cl13  1  0.92729915  0.22866517  0.30266135  1
  Cl  Cl14  1  0.57270085  0.77133483  0.80266135  1
  Cl  Cl15  1  0.07270085  0.72866517  0.19733865  1
  Cl  Cl16  1  0.22134849  0.52769856  0.30306153  1
  Cl  Cl17  1  0.72134849  0.97230144  0.69693847  1
  Cl  Cl18  1  0.77865151  0.02769856  0.19693847  1
  Cl  Cl19  1  0.27865151  0.47230144  0.80306153  1
  Cl  Cl20  1  0.77865151  0.47230144  0.69693847  1
  Cl  Cl21  1  0.27865151  0.02769856  0.30306153  1
  Cl  Cl22  1  0.22134849  0.97230144  0.80306153  1
  Cl  Cl23  1  0.72134849  0.52769856  0.19693847  1
  Cl  Cl24  1  0.53547869  0.73587425  0.08502854  1
  Cl  Cl25  1  0.03547869  0.76412575  0.91497146  1
  Cl  Cl26  1  0.46452131  0.23587425  0.41497146  1
  Cl  Cl27  1  0.96452131  0.26412575  0.58502854  1
  Cl  Cl28  1  0.46452131  0.26412575  0.91497146  1
  Cl  Cl29  1  0.96452131  0.23587425  0.08502854  1
  Cl  Cl30  1  0.53547869  0.76412575  0.58502854  1
  Cl  Cl31  1  0.03547869  0.73587425  0.41497146  1
  Tc  Tc32  1  0.89678594  0.62809709  0.31578346  1
  Tc  Tc33  1  0.39678594  0.87190291  0.68421654  1
  Tc  Tc34  1  0.10321406  0.12809709  0.18421654  1
  Tc  Tc35  1  0.60321406  0.37190291  0.81578346  1
  Tc  Tc36  1  0.10321406  0.37190291  0.68421654  1
  Tc  Tc37  1  0.60321406  0.12809709  0.31578346  1
  Tc  Tc38  1  0.89678594  0.87190291  0.81578346  1
  Tc  Tc39  1  0.39678594  0.62809709  0.18421654  1
