# generated using pymatgen
data_Rb3Cu2Cl7
_symmetry_space_group_name_H-M   'P 1'
_cell_length_a   7.32583328
_cell_length_b   7.32366192
_cell_length_c   13.06570921
_cell_angle_alpha   90.00000000
_cell_angle_beta   106.28084392
_cell_angle_gamma   90.00000000
_symmetry_Int_Tables_number   1
_chemical_formula_structural   Rb3Cu2Cl7
_chemical_formula_sum   'Rb6 Cu4 Cl14'
_cell_volume   672.88969970
_cell_formula_units_Z   2
loop_
 _symmetry_equiv_pos_site_id
 _symmetry_equiv_pos_as_xyz
  1  'x, y, z'
loop_
 _atom_site_type_symbol
 _atom_site_label
 _atom_site_symmetry_multiplicity
 _atom_site_fract_x
 _atom_site_fract_y
 _atom_site_fract_z
 _atom_site_occupancy
  Cl  Cl0  1  0.62641668  0.96558160  0.18398554  1
  Cl  Cl1  1  0.44243114  0.53441840  0.81601446  1
  Cl  Cl2  1  0.87358332  0.96558160  0.81601446  1
  Cl  Cl3  1  0.05756886  0.53441840  0.18398554  1
  Cl  Cl4  1  0.37358332  0.03441840  0.81601446  1
  Cl  Cl5  1  0.55756886  0.46558160  0.18398554  1
  Cl  Cl6  1  0.12641668  0.03441840  0.18398554  1
  Cl  Cl7  1  0.94243114  0.46558160  0.81601446  1
  Cl  Cl8  1  0.43961048  0.25000000  0.37922095  1
  Cl  Cl9  1  0.06038952  0.25000000  0.62077905  1
  Cl  Cl10  1  0.25000000  0.25000000  0.00000000  1
  Cl  Cl11  1  0.75000000  0.75000000  0.00000000  1
  Cl  Cl12  1  0.93961048  0.75000000  0.37922095  1
  Cl  Cl13  1  0.56038952  0.75000000  0.62077905  1
  Cu  Cu14  1  0.34511407  0.25000000  0.19022814  1
  Cu  Cu15  1  0.15488593  0.25000000  0.80977186  1
  Cu  Cu16  1  0.65488593  0.75000000  0.80977186  1
  Cu  Cu17  1  0.84511407  0.75000000  0.19022814  1
  Rb  Rb18  1  0.57094302  0.25000000  0.64188604  1
  Rb  Rb19  1  0.92905698  0.25000000  0.35811396  1
  Rb  Rb20  1  0.42905698  0.75000000  0.35811396  1
  Rb  Rb21  1  0.07094302  0.75000000  0.64188604  1
  Rb  Rb22  1  0.75000000  0.25000000  0.00000000  1
  Rb  Rb23  1  0.25000000  0.75000000  0.00000000  1
