# generated using pymatgen
data_TaPCl10
_symmetry_space_group_name_H-M   'P 1'
_cell_length_a   7.35821015
_cell_length_b   7.61361108
_cell_length_c   14.18700965
_cell_angle_alpha   90.43230352
_cell_angle_beta   91.24302739
_cell_angle_gamma   106.41675122
_symmetry_Int_Tables_number   1
_chemical_formula_structural   TaPCl10
_chemical_formula_sum   'Ta2 P2 Cl20'
_cell_volume   762.13295836
_cell_formula_units_Z   2
loop_
 _symmetry_equiv_pos_site_id
 _symmetry_equiv_pos_as_xyz
  1  'x, y, z'
loop_
 _atom_site_type_symbol
 _atom_site_label
 _atom_site_symmetry_multiplicity
 _atom_site_fract_x
 _atom_site_fract_y
 _atom_site_fract_z
 _atom_site_occupancy
  P  P0  1  0.38246476  0.59146846  0.76060212  1
  P  P1  1  0.61753524  0.40853154  0.23939788  1
  Cl  Cl2  1  0.29300760  0.07776602  0.92202846  1
  Cl  Cl3  1  0.70699240  0.92223398  0.07797154  1
  Cl  Cl4  1  0.11034665  0.26701612  0.09719535  1
  Cl  Cl5  1  0.88965335  0.73298388  0.90280465  1
  Cl  Cl6  1  0.12410630  0.82878168  0.11039349  1
  Cl  Cl7  1  0.87589370  0.17121832  0.88960651  1
  Cl  Cl8  1  0.22497088  0.28876932  0.47882361  1
  Cl  Cl9  1  0.77502912  0.71123068  0.52117639  1
  Cl  Cl10  1  0.22993147  0.84878310  0.45795442  1
  Cl  Cl11  1  0.77006853  0.15121690  0.54204558  1
  Cl  Cl12  1  0.09617361  0.00408120  0.66039601  1
  Cl  Cl13  1  0.90382639  0.99591880  0.33960399  1
  Cl  Cl14  1  0.65696676  0.41076538  0.10371797  1
  Cl  Cl15  1  0.34303324  0.58923462  0.89628203  1
  Cl  Cl16  1  0.86241676  0.47916603  0.30638797  1
  Cl  Cl17  1  0.13758324  0.52083397  0.69361203  1
  Cl  Cl18  1  0.47265408  0.16487966  0.27815924  1
  Cl  Cl19  1  0.52734592  0.83512034  0.72184076  1
  Cl  Cl20  1  0.47726338  0.58361986  0.27171801  1
  Cl  Cl21  1  0.52273662  0.41638014  0.72828199  1
  Ta  Ta22  1  0.00000000  0.00000000  0.50000000  1
  Ta  Ta23  1  0.00000000  0.00000000  0.00000000  1
