# generated using pymatgen
data_SbAs2Cl13
_symmetry_space_group_name_H-M   'P 1'
_cell_length_a   9.87918632
_cell_length_b   9.87918631
_cell_length_c   12.18304244
_cell_angle_alpha   90.00000000
_cell_angle_beta   90.00000000
_cell_angle_gamma   113.64517667
_symmetry_Int_Tables_number   1
_chemical_formula_structural   SbAs2Cl13
_chemical_formula_sum   'Sb2 As4 Cl26'
_cell_volume   1089.22038367
_cell_formula_units_Z   2
loop_
 _symmetry_equiv_pos_site_id
 _symmetry_equiv_pos_as_xyz
  1  'x, y, z'
loop_
 _atom_site_type_symbol
 _atom_site_label
 _atom_site_symmetry_multiplicity
 _atom_site_fract_x
 _atom_site_fract_y
 _atom_site_fract_z
 _atom_site_occupancy
  Cl  Cl0  1  0.07426119  0.24247527  0.09901118  1
  Cl  Cl1  1  0.31099970  0.37770470  0.36968369  1
  Cl  Cl2  1  0.33223789  0.66776211  0.10787970  1
  Cl  Cl3  1  0.66776211  0.33223789  0.60787970  1
  Cl  Cl4  1  0.08866020  0.91133980  0.89030596  1
  Cl  Cl5  1  0.91133980  0.08866020  0.39030596  1
  Cl  Cl6  1  0.31033543  0.00476594  0.11761212  1
  Cl  Cl7  1  0.68966457  0.99523406  0.61761212  1
  Cl  Cl8  1  0.99523406  0.68966457  0.11761212  1
  Cl  Cl9  1  0.00476594  0.31033543  0.61761212  1
  Cl  Cl10  1  0.42507380  0.89239367  0.88281742  1
  Cl  Cl11  1  0.57492620  0.10760633  0.38281742  1
  Cl  Cl12  1  0.10760633  0.57492620  0.88281742  1
  Cl  Cl13  1  0.89239367  0.42507380  0.38281742  1
  Cl  Cl14  1  0.62229530  0.68900030  0.36968369  1
  Cl  Cl15  1  0.24247527  0.07426119  0.59901118  1
  Cl  Cl16  1  0.75752473  0.92573881  0.09901118  1
  Cl  Cl17  1  0.92573881  0.75752473  0.59901118  1
  Cl  Cl18  1  0.73562712  0.26437288  0.09138346  1
  Cl  Cl19  1  0.26437288  0.73562712  0.59138346  1
  Cl  Cl20  1  0.86020940  0.13979060  0.86525872  1
  Cl  Cl21  1  0.13979060  0.86020940  0.36525872  1
  Cl  Cl22  1  0.55829827  0.44170173  0.16612472  1
  Cl  Cl23  1  0.44170173  0.55829827  0.66612472  1
  Cl  Cl24  1  0.37770470  0.31099970  0.86968369  1
  Cl  Cl25  1  0.68900030  0.62229530  0.86968369  1
  As  As26  1  0.55215965  0.44784035  0.35039854  1
  As  As27  1  0.85695573  0.14304427  0.03835920  1
  As  As28  1  0.44784035  0.55215965  0.85039854  1
  As  As29  1  0.14304427  0.85695573  0.53835920  1
  Sb  Sb30  1  0.79031577  0.20968423  0.50084087  1
  Sb  Sb31  1  0.20968423  0.79031577  1.00084087  1
