# generated using pymatgen
data_CsReBr4
_symmetry_space_group_name_H-M   'P 1'
_cell_length_a   10.60162351
_cell_length_b   13.06943454
_cell_length_c   13.56505842
_cell_angle_alpha   90.00000000
_cell_angle_beta   90.00000000
_cell_angle_gamma   90.00000000
_symmetry_Int_Tables_number   1
_chemical_formula_structural   CsReBr4
_chemical_formula_sum   'Cs8 Re8 Br32'
_cell_volume   1879.53684461
_cell_formula_units_Z   8
loop_
 _symmetry_equiv_pos_site_id
 _symmetry_equiv_pos_as_xyz
  1  'x, y, z'
loop_
 _atom_site_type_symbol
 _atom_site_label
 _atom_site_symmetry_multiplicity
 _atom_site_fract_x
 _atom_site_fract_y
 _atom_site_fract_z
 _atom_site_occupancy
  Br  Br0  1  0.52874756  0.20153832  0.39546570  1
  Br  Br1  1  0.02874756  0.29846168  0.60453430  1
  Br  Br2  1  0.47125244  0.70153832  0.10453430  1
  Br  Br3  1  0.97125244  0.79846168  0.89546570  1
  Br  Br4  1  0.47125244  0.79846168  0.60453430  1
  Br  Br5  1  0.97125244  0.70153832  0.39546570  1
  Br  Br6  1  0.52874756  0.29846168  0.89546570  1
  Br  Br7  1  0.02874756  0.20153832  0.10453430  1
  Br  Br8  1  0.41373356  0.98512606  0.28873699  1
  Br  Br9  1  0.91373356  0.51487394  0.71126301  1
  Br  Br10  1  0.58626644  0.48512606  0.21126301  1
  Br  Br11  1  0.08626644  0.01487394  0.78873699  1
  Br  Br12  1  0.58626644  0.01487394  0.71126301  1
  Br  Br13  1  0.08626644  0.48512606  0.28873699  1
  Br  Br14  1  0.41373356  0.51487394  0.78873699  1
  Br  Br15  1  0.91373356  0.98512606  0.21126301  1
  Br  Br16  1  0.27183739  0.06143998  0.00273611  1
  Br  Br17  1  0.77183739  0.43856002  0.99726389  1
  Br  Br18  1  0.72816261  0.56143998  0.49726389  1
  Br  Br19  1  0.22816261  0.93856002  0.50273611  1
  Br  Br20  1  0.72816261  0.93856002  0.99726389  1
  Br  Br21  1  0.22816261  0.56143998  0.00273611  1
  Br  Br22  1  0.27183739  0.43856002  0.50273611  1
  Br  Br23  1  0.77183739  0.06143998  0.49726389  1
  Br  Br24  1  0.15152188  0.84418077  0.10958526  1
  Br  Br25  1  0.65152188  0.65581923  0.89041474  1
  Br  Br26  1  0.84847812  0.34418077  0.39041474  1
  Br  Br27  1  0.34847812  0.15581923  0.60958526  1
  Br  Br28  1  0.84847812  0.15581923  0.89041474  1
  Br  Br29  1  0.34847812  0.34418077  0.10958526  1
  Br  Br30  1  0.15152188  0.65581923  0.60958526  1
  Br  Br31  1  0.65152188  0.84418077  0.39041474  1
  Cs  Cs32  1  0.33513713  0.69603641  0.36687538  1
  Cs  Cs33  1  0.83513713  0.80396359  0.63312462  1
  Cs  Cs34  1  0.66486287  0.19603641  0.13312462  1
  Cs  Cs35  1  0.16486287  0.30396359  0.86687538  1
  Cs  Cs36  1  0.66486287  0.30396359  0.63312462  1
  Cs  Cs37  1  0.16486287  0.19603641  0.36687538  1
  Cs  Cs38  1  0.33513713  0.80396359  0.86687538  1
  Cs  Cs39  1  0.83513713  0.69603641  0.13312462  1
  Re  Re40  1  0.55970507  0.01452418  0.43082013  1
  Re  Re41  1  0.05970507  0.48547582  0.56917987  1
  Re  Re42  1  0.44029493  0.51452418  0.06917987  1
  Re  Re43  1  0.94029493  0.98547582  0.93082013  1
  Re  Re44  1  0.44029493  0.98547582  0.56917987  1
  Re  Re45  1  0.94029493  0.51452418  0.43082013  1
  Re  Re46  1  0.55970507  0.48547582  0.93082013  1
  Re  Re47  1  0.05970507  0.01452418  0.06917987  1
