# generated using pymatgen
data_Li4H4Rh
_symmetry_space_group_name_H-M   'P 1'
_cell_length_a   4.08399615
_cell_length_b   4.89547366
_cell_length_c   4.89547366
_cell_angle_alpha   79.98018388
_cell_angle_beta   65.34713037
_cell_angle_gamma   65.34713034
_symmetry_Int_Tables_number   1
_chemical_formula_structural   Li4H4Rh
_chemical_formula_sum   'Li4 H4 Rh1'
_cell_volume   80.84640468
_cell_formula_units_Z   1
loop_
 _symmetry_equiv_pos_site_id
 _symmetry_equiv_pos_as_xyz
  1  'x, y, z'
loop_
 _atom_site_type_symbol
 _atom_site_label
 _atom_site_symmetry_multiplicity
 _atom_site_fract_x
 _atom_site_fract_y
 _atom_site_fract_z
 _atom_site_occupancy
  H  H0  1  0.93252557  0.80221055  0.33273832  1
  H  H1  1  0.06747443  0.19778945  0.66726168  1
  H  H2  1  0.26526389  0.66726168  0.80221055  1
  H  H3  1  0.73473611  0.33273832  0.19778945  1
  Li  Li4  1  0.61300190  0.16895481  0.60504139  1
  Li  Li5  1  0.38699810  0.83104519  0.39495861  1
  Li  Li6  1  0.21804329  0.39495861  0.16895481  1
  Li  Li7  1  0.78195671  0.60504139  0.83104519  1
  Rh  Rh8  1  0.00000000  0.00000000  0.00000000  1
