# generated using pymatgen
data_BaSn2S3
_symmetry_space_group_name_H-M   'P 1'
_cell_length_a   6.24477025
_cell_length_b   12.08429058
_cell_length_c   13.66459802
_cell_angle_alpha   90.00000000
_cell_angle_beta   90.00000000
_cell_angle_gamma   101.16877446
_symmetry_Int_Tables_number   1
_chemical_formula_structural   BaSn2S3
_chemical_formula_sum   'Ba6 Sn12 S18'
_cell_volume   1011.65035095
_cell_formula_units_Z   6
loop_
 _symmetry_equiv_pos_site_id
 _symmetry_equiv_pos_as_xyz
  1  'x, y, z'
loop_
 _atom_site_type_symbol
 _atom_site_label
 _atom_site_symmetry_multiplicity
 _atom_site_fract_x
 _atom_site_fract_y
 _atom_site_fract_z
 _atom_site_occupancy
  S  S0  1  0.24841055  0.07014368  0.75000000  1
  S  S1  1  0.75158945  0.92985632  0.25000000  1
  S  S2  1  0.57375921  0.37831344  0.75000000  1
  S  S3  1  0.42624079  0.62168656  0.25000000  1
  S  S4  1  0.96116989  0.71708462  0.75000000  1
  S  S5  1  0.03883011  0.28291538  0.25000000  1
  S  S6  1  0.26144193  0.05111666  0.39317801  1
  S  S7  1  0.73855807  0.94888334  0.89317801  1
  S  S8  1  0.73855807  0.94888334  0.60682199  1
  S  S9  1  0.26144193  0.05111666  0.10682199  1
  S  S10  1  0.91284352  0.70965313  0.42089234  1
  S  S11  1  0.08715648  0.29034687  0.92089234  1
  S  S12  1  0.08715648  0.29034687  0.57910766  1
  S  S13  1  0.91284352  0.70965313  0.07910766  1
  S  S14  1  0.59463488  0.38608735  0.07111614  1
  S  S15  1  0.40536512  0.61391265  0.92888386  1
  S  S16  1  0.40536512  0.61391265  0.57111614  1
  S  S17  1  0.59463488  0.38608735  0.42888386  1
  Sn  Sn18  1  0.45346763  0.22780871  0.88598443  1
  Sn  Sn19  1  0.38274790  0.20816438  0.25000000  1
  Sn  Sn20  1  0.22458886  0.44765630  0.44792670  1
  Sn  Sn21  1  0.77541114  0.55234370  0.94792670  1
  Sn  Sn22  1  0.77541114  0.55234370  0.55207330  1
  Sn  Sn23  1  0.22458886  0.44765630  0.05207330  1
  Sn  Sn24  1  0.84262032  0.09923204  0.75000000  1
  Sn  Sn25  1  0.15737968  0.90076796  0.25000000  1
  Sn  Sn26  1  0.54653237  0.77219129  0.38598443  1
  Sn  Sn27  1  0.54653237  0.77219129  0.11401557  1
  Sn  Sn28  1  0.45346763  0.22780871  0.61401557  1
  Sn  Sn29  1  0.61725210  0.79183562  0.75000000  1
  Ba  Ba30  1  0.12348311  0.47452040  0.75000000  1
  Ba  Ba31  1  0.87651689  0.52547960  0.25000000  1
  Ba  Ba32  1  0.79934077  0.12811867  0.42173012  1
  Ba  Ba33  1  0.20065923  0.87188133  0.92173012  1
  Ba  Ba34  1  0.20065923  0.87188133  0.57826988  1
  Ba  Ba35  1  0.79934077  0.12811867  0.07826988  1
