# generated using pymatgen
data_NbPCl10
_symmetry_space_group_name_H-M   'P 1'
_cell_length_a   7.34782090
_cell_length_b   7.59511169
_cell_length_c   14.17640338
_cell_angle_alpha   91.08802972
_cell_angle_beta   91.15233596
_cell_angle_gamma   106.27275828
_symmetry_Int_Tables_number   1
_chemical_formula_structural   NbPCl10
_chemical_formula_sum   'Nb2 P2 Cl20'
_cell_volume   759.05182664
_cell_formula_units_Z   2
loop_
 _symmetry_equiv_pos_site_id
 _symmetry_equiv_pos_as_xyz
  1  'x, y, z'
loop_
 _atom_site_type_symbol
 _atom_site_label
 _atom_site_symmetry_multiplicity
 _atom_site_fract_x
 _atom_site_fract_y
 _atom_site_fract_z
 _atom_site_occupancy
  P  P0  1  0.38055341  0.59182802  0.76071537  1
  P  P1  1  0.61944659  0.40817198  0.23928463  1
  Cl  Cl2  1  0.29386368  0.07889460  0.92099054  1
  Cl  Cl3  1  0.70613632  0.92110540  0.07900946  1
  Cl  Cl4  1  0.11160161  0.26888002  0.09941371  1
  Cl  Cl5  1  0.88839839  0.73111998  0.90058629  1
  Cl  Cl6  1  0.12676094  0.82721628  0.10915144  1
  Cl  Cl7  1  0.87323906  0.17278372  0.89084856  1
  Cl  Cl8  1  0.22513970  0.29024760  0.47740536  1
  Cl  Cl9  1  0.77486030  0.70975240  0.52259464  1
  Cl  Cl10  1  0.23003311  0.84621851  0.45543237  1
  Cl  Cl11  1  0.76996689  0.15378149  0.54456763  1
  Cl  Cl12  1  0.10202301  0.00765689  0.66062705  1
  Cl  Cl13  1  0.89797699  0.99234311  0.33937295  1
  Cl  Cl14  1  0.65838409  0.41158776  0.10341110  1
  Cl  Cl15  1  0.34161591  0.58841224  0.89658890  1
  Cl  Cl16  1  0.86476023  0.47647914  0.30634152  1
  Cl  Cl17  1  0.13523977  0.52352086  0.69365848  1
  Cl  Cl18  1  0.47320732  0.16412066  0.27602080  1
  Cl  Cl19  1  0.52679268  0.83587934  0.72397920  1
  Cl  Cl20  1  0.48057690  0.58475034  0.27377453  1
  Cl  Cl21  1  0.51942310  0.41524966  0.72622547  1
  Nb  Nb22  1  0.00000000  0.00000000  0.50000000  1
  Nb  Nb23  1  0.00000000  0.00000000  0.00000000  1
