# generated using pymatgen
data_U(BiO3)2
_symmetry_space_group_name_H-M   'P 1'
_cell_length_a   3.92710149
_cell_length_b   3.92710631
_cell_length_c   9.55756373
_cell_angle_alpha   89.99933572
_cell_angle_beta   89.99911701
_cell_angle_gamma   59.98236963
_symmetry_Int_Tables_number   1
_chemical_formula_structural   U(BiO3)2
_chemical_formula_sum   'U1 Bi2 O6'
_cell_volume   127.62784449
_cell_formula_units_Z   1
loop_
 _symmetry_equiv_pos_site_id
 _symmetry_equiv_pos_as_xyz
  1  'x, y, z'
loop_
 _atom_site_type_symbol
 _atom_site_label
 _atom_site_symmetry_multiplicity
 _atom_site_fract_x
 _atom_site_fract_y
 _atom_site_fract_z
 _atom_site_occupancy
  U  U0  1  0.97289446  0.02710205  0.00000161  1
  Bi  Bi1  1  0.30847365  0.35814229  0.34014684  1
  Bi  Bi2  1  0.64185932  0.69152442  0.65985095  1
  O  O3  1  0.97367481  0.02662282  0.20989650  1
  O  O4  1  0.97337912  0.02632394  0.79010373  1
  O  O5  1  0.30817723  0.35848451  0.58510523  1
  O  O6  1  0.63963362  0.69361053  0.94713244  1
  O  O7  1  0.30638639  0.36036807  0.05286597  1
  O  O8  1  0.64152139  0.69182138  0.41489674  1
