# generated using pymatgen
data_PICl6
_symmetry_space_group_name_H-M   'P 1'
_cell_length_a   5.66067832
_cell_length_b   10.09411663
_cell_length_c   10.09411663
_cell_angle_alpha   90.00000000
_cell_angle_beta   90.00000000
_cell_angle_gamma   90.00000000
_symmetry_Int_Tables_number   1
_chemical_formula_structural   PICl6
_chemical_formula_sum   'P2 I2 Cl12'
_cell_volume   576.77325329
_cell_formula_units_Z   2
loop_
 _symmetry_equiv_pos_site_id
 _symmetry_equiv_pos_as_xyz
  1  'x, y, z'
loop_
 _atom_site_type_symbol
 _atom_site_label
 _atom_site_symmetry_multiplicity
 _atom_site_fract_x
 _atom_site_fract_y
 _atom_site_fract_z
 _atom_site_occupancy
  P  P0  1  0.50000000  0.00000000  0.00000000  1
  P  P1  1  0.50000000  0.50000000  0.50000000  1
  Cl  Cl2  1  0.88468403  0.31951696  0.18048304  1
  Cl  Cl3  1  0.70553394  0.07689851  0.86214419  1
  Cl  Cl4  1  0.11531597  0.18048304  0.68048304  1
  Cl  Cl5  1  0.88468403  0.68048304  0.81951696  1
  Cl  Cl6  1  0.70553394  0.36214419  0.57689851  1
  Cl  Cl7  1  0.11531597  0.81951696  0.31951696  1
  Cl  Cl8  1  0.29446606  0.57689851  0.63785581  1
  Cl  Cl9  1  0.29446606  0.13785581  0.07689851  1
  Cl  Cl10  1  0.29446606  0.42310149  0.36214419  1
  Cl  Cl11  1  0.70553394  0.63785581  0.42310149  1
  Cl  Cl12  1  0.29446606  0.86214419  0.92310149  1
  Cl  Cl13  1  0.70553394  0.92310149  0.13785581  1
  I  I14  1  0.11795299  0.00000000  0.50000000  1
  I  I15  1  0.88204701  0.50000000  0.00000000  1
