# generated using pymatgen
data_Li2Te2O5
_symmetry_space_group_name_H-M   'P 1'
_cell_length_a   4.86816905
_cell_length_b   10.60825930
_cell_length_c   11.08101604
_cell_angle_alpha   110.97947923
_cell_angle_beta   90.00000000
_cell_angle_gamma   90.00000000
_symmetry_Int_Tables_number   1
_chemical_formula_structural   Li2Te2O5
_chemical_formula_sum   'Li8 Te8 O20'
_cell_volume   534.31919355
_cell_formula_units_Z   4
loop_
 _symmetry_equiv_pos_site_id
 _symmetry_equiv_pos_as_xyz
  1  'x, y, z'
loop_
 _atom_site_type_symbol
 _atom_site_label
 _atom_site_symmetry_multiplicity
 _atom_site_fract_x
 _atom_site_fract_y
 _atom_site_fract_z
 _atom_site_occupancy
  Li  Li0  1  0.81875699  0.25236592  0.17548483  1
  Li  Li1  1  0.31875699  0.24763408  0.32451517  1
  Li  Li2  1  0.18124301  0.74763408  0.82451517  1
  Li  Li3  1  0.68124301  0.75236592  0.67548483  1
  Li  Li4  1  0.70615887  0.41428195  0.49060107  1
  Li  Li5  1  0.20615887  0.08571805  0.00939893  1
  Li  Li6  1  0.29384113  0.58571805  0.50939893  1
  Li  Li7  1  0.79384113  0.91428195  0.99060107  1
  O  O8  1  0.98392794  0.83320515  0.45452436  1
  O  O9  1  0.48392794  0.66679485  0.04547564  1
  O  O10  1  0.01607206  0.16679485  0.54547564  1
  O  O11  1  0.51607206  0.33320515  0.95452436  1
  O  O12  1  0.82333413  0.94439320  0.71194052  1
  O  O13  1  0.32333413  0.55560680  0.78805948  1
  O  O14  1  0.17666587  0.05560680  0.28805948  1
  O  O15  1  0.67666587  0.44439320  0.21194052  1
  O  O16  1  0.77008215  0.73234176  0.84355162  1
  O  O17  1  0.27008215  0.76765824  0.65644838  1
  O  O18  1  0.22991785  0.26765824  0.15644838  1
  O  O19  1  0.72991785  0.23234176  0.34355162  1
  O  O20  1  0.67430369  0.93038796  0.16980349  1
  O  O21  1  0.17430369  0.56961204  0.33019651  1
  O  O22  1  0.32569631  0.06961204  0.83019651  1
  O  O23  1  0.82569631  0.43038796  0.66980349  1
  O  O24  1  0.71419138  0.60552135  0.49453556  1
  O  O25  1  0.21419138  0.89447865  0.00546444  1
  O  O26  1  0.28580862  0.39447865  0.50546444  1
  O  O27  1  0.78580862  0.10552135  0.99453556  1
  Te  Te28  1  0.83003945  0.07492639  0.37486126  1
  Te  Te29  1  0.33003945  0.42507361  0.12513874  1
  Te  Te30  1  0.16996055  0.92507361  0.62513874  1
  Te  Te31  1  0.66996055  0.57492639  0.87486126  1
  Te  Te32  1  0.81895666  0.64970374  0.35106826  1
  Te  Te33  1  0.31895666  0.85029626  0.14893174  1
  Te  Te34  1  0.18104334  0.35029626  0.64893174  1
  Te  Te35  1  0.68104334  0.14970374  0.85106826  1
