# generated using pymatgen
data_Ba3SiS5
_symmetry_space_group_name_H-M   'P 1'
_cell_length_a   8.69300459
_cell_length_b   9.55183217
_cell_length_c   12.13416415
_cell_angle_alpha   90.00000000
_cell_angle_beta   90.00000000
_cell_angle_gamma   90.00000000
_symmetry_Int_Tables_number   1
_chemical_formula_structural   Ba3SiS5
_chemical_formula_sum   'Ba12 Si4 S20'
_cell_volume   1007.54965301
_cell_formula_units_Z   4
loop_
 _symmetry_equiv_pos_site_id
 _symmetry_equiv_pos_as_xyz
  1  'x, y, z'
loop_
 _atom_site_type_symbol
 _atom_site_label
 _atom_site_symmetry_multiplicity
 _atom_site_fract_x
 _atom_site_fract_y
 _atom_site_fract_z
 _atom_site_occupancy
  Si  Si0  1  0.30588868  0.75000000  0.40305392  1
  Si  Si1  1  0.19411132  0.75000000  0.90305392  1
  Si  Si2  1  0.69411132  0.25000000  0.59694608  1
  Si  Si3  1  0.80588868  0.25000000  0.09694608  1
  S  S4  1  0.68211991  0.75000000  0.76558731  1
  S  S5  1  0.18211991  0.25000000  0.73441269  1
  S  S6  1  0.31788009  0.25000000  0.23441269  1
  S  S7  1  0.81788009  0.75000000  0.26558731  1
  S  S8  1  0.98652578  0.75000000  0.99476678  1
  S  S9  1  0.48652578  0.25000000  0.50523322  1
  S  S10  1  0.01347422  0.25000000  0.00523322  1
  S  S11  1  0.51347422  0.75000000  0.49476678  1
  S  S12  1  0.14963396  0.75000000  0.72926707  1
  S  S13  1  0.35036604  0.75000000  0.22926707  1
  S  S14  1  0.85036604  0.25000000  0.27073293  1
  S  S15  1  0.64963396  0.25000000  0.77073293  1
  S  S16  1  0.68339839  0.06589453  0.05532961  1
  S  S17  1  0.18339839  0.93410547  0.44467039  1
  S  S18  1  0.31660161  0.56589453  0.94467039  1
  S  S19  1  0.81660161  0.43410547  0.55532961  1
  S  S20  1  0.31660161  0.93410547  0.94467039  1
  S  S21  1  0.81660161  0.06589453  0.55532961  1
  S  S22  1  0.68339839  0.43410547  0.05532961  1
  S  S23  1  0.18339839  0.56589453  0.44467039  1
  Ba  Ba24  1  0.88604681  0.75000000  0.51972184  1
  Ba  Ba25  1  0.38604681  0.25000000  0.98027816  1
  Ba  Ba26  1  0.11395319  0.25000000  0.48027816  1
  Ba  Ba27  1  0.61395319  0.75000000  0.01972184  1
  Ba  Ba28  1  0.07777138  0.98026605  0.18259400  1
  Ba  Ba29  1  0.57777138  0.01973395  0.31740600  1
  Ba  Ba30  1  0.92222862  0.48026605  0.81740600  1
  Ba  Ba31  1  0.42222862  0.51973395  0.68259400  1
  Ba  Ba32  1  0.92222862  0.01973395  0.81740600  1
  Ba  Ba33  1  0.42222862  0.98026605  0.68259400  1
  Ba  Ba34  1  0.07777138  0.51973395  0.18259400  1
  Ba  Ba35  1  0.57777138  0.48026605  0.31740600  1
