# generated using pymatgen
data_Li2Mn2OF4
_symmetry_space_group_name_H-M   'P 1'
_cell_length_a   13.72188981
_cell_length_b   4.02027621
_cell_length_c   8.49156200
_cell_angle_alpha   89.98220157
_cell_angle_beta   98.39182608
_cell_angle_gamma   89.95570230
_symmetry_Int_Tables_number   1
_chemical_formula_structural   Li2Mn2OF4
_chemical_formula_sum   'Li8 Mn8 O4 F16'
_cell_volume   463.42797042
_cell_formula_units_Z   4
loop_
 _symmetry_equiv_pos_site_id
 _symmetry_equiv_pos_as_xyz
  1  'x, y, z'
loop_
 _atom_site_type_symbol
 _atom_site_label
 _atom_site_symmetry_multiplicity
 _atom_site_fract_x
 _atom_site_fract_y
 _atom_site_fract_z
 _atom_site_occupancy
  Li  Li0  1  0.01065230  0.73695548  0.78936475  1
  Li  Li1  1  0.05739012  0.24418579  0.59428847  1
  Li  Li2  1  0.44506934  0.74657238  0.41188276  1
  Li  Li3  1  0.49864669  0.76615576  0.78487865  1
  Li  Li4  1  0.48805045  0.24059786  0.20630875  1
  Li  Li5  1  0.56668447  0.25478371  0.58541694  1
  Li  Li6  1  0.95249838  0.75245455  0.41560107  1
  Li  Li7  1  0.98055817  0.25890178  0.21495547  1
  Mn  Mn8  1  0.23992639  0.74542782  0.60521644  1
  Mn  Mn9  1  0.33549151  0.73797048  0.03723143  1
  Mn  Mn10  1  0.15723751  0.23513974  0.99434436  1
  Mn  Mn11  1  0.28142018  0.24555476  0.33190264  1
  Mn  Mn12  1  0.73080492  0.75428017  0.63212775  1
  Mn  Mn13  1  0.84147624  0.76367152  0.03433372  1
  Mn  Mn14  1  0.66582409  0.26508735  0.97962623  1
  Mn  Mn15  1  0.76554368  0.25457223  0.35193927  1
  O  O16  1  0.30849290  0.23852009  0.08592487  1
  O  O17  1  0.29581812  0.74558256  0.39605508  1
  O  O18  1  0.81110510  0.26281495  0.09733657  1
  O  O19  1  0.71267056  0.25436783  0.57569597  1
  F  F20  1  0.03298437  0.23892897  0.81769039  1
  F  F21  1  0.06354587  0.74521741  0.58710368  1
  F  F22  1  0.20190779  0.24555865  0.61190459  1
  F  F23  1  0.12122616  0.25148233  0.21970625  1
  F  F24  1  0.35965528  0.75262277  0.79582690  1
  F  F25  1  0.16383250  0.73583573  0.91950464  1
  F  F26  1  0.45314346  0.24751944  0.41400288  1
  F  F27  1  0.53349545  0.26035637  0.82480639  1
  F  F28  1  0.47292276  0.74257949  0.18055309  1
  F  F29  1  0.55339593  0.75392482  0.59250454  1
  F  F30  1  0.62450189  0.24593629  0.20329018  1
  F  F31  1  0.87082274  0.74806091  0.79991614  1
  F  F32  1  0.80673146  0.75436138  0.39308489  1
  F  F33  1  0.67837971  0.76448225  0.89825589  1
  F  F34  1  0.94570308  0.25211625  0.42574268  1
  F  F35  1  0.97239045  0.75742313  0.19167464  1
