# generated using pymatgen
data_CaSe2O5
_symmetry_space_group_name_H-M   'P 1'
_cell_length_a   6.62248773
_cell_length_b   10.36621436
_cell_length_c   14.88214634
_cell_angle_alpha   90.00000000
_cell_angle_beta   90.00000000
_cell_angle_gamma   90.00000000
_symmetry_Int_Tables_number   1
_chemical_formula_structural   CaSe2O5
_chemical_formula_sum   'Ca8 Se16 O40'
_cell_volume   1021.66124231
_cell_formula_units_Z   8
loop_
 _symmetry_equiv_pos_site_id
 _symmetry_equiv_pos_as_xyz
  1  'x, y, z'
loop_
 _atom_site_type_symbol
 _atom_site_label
 _atom_site_symmetry_multiplicity
 _atom_site_fract_x
 _atom_site_fract_y
 _atom_site_fract_z
 _atom_site_occupancy
  O  O0  1  0.75623746  0.19177446  0.81941005  1
  O  O1  1  0.25623746  0.80822554  0.68058995  1
  O  O2  1  0.74376254  0.69177446  0.18058995  1
  O  O3  1  0.24376254  0.30822554  0.31941005  1
  O  O4  1  0.24376254  0.80822554  0.18058995  1
  O  O5  1  0.74376254  0.19177446  0.31941005  1
  O  O6  1  0.25623746  0.30822554  0.81941005  1
  O  O7  1  0.75623746  0.69177446  0.68058995  1
  O  O8  1  0.78889863  0.99037588  0.70644309  1
  O  O9  1  0.28889863  0.00962412  0.79355691  1
  O  O10  1  0.71110137  0.49037588  0.29355691  1
  O  O11  1  0.21110137  0.50962412  0.20644309  1
  O  O12  1  0.21110137  0.00962412  0.29355691  1
  O  O13  1  0.71110137  0.99037588  0.20644309  1
  O  O14  1  0.28889863  0.50962412  0.70644309  1
  O  O15  1  0.89875992  0.31939125  0.47702444  1
  O  O16  1  0.78889863  0.49037588  0.79355691  1
  O  O17  1  0.25289924  0.77311865  0.86489504  1
  O  O18  1  0.74710076  0.72688135  0.36489504  1
  O  O19  1  0.24710076  0.27311865  0.13510496  1
  O  O20  1  0.24710076  0.77311865  0.36489504  1
  O  O21  1  0.74710076  0.22688135  0.13510496  1
  O  O22  1  0.25289924  0.27311865  0.63510496  1
  O  O23  1  0.75289924  0.72688135  0.86489504  1
  O  O24  1  0.62541503  0.94539773  0.93758298  1
  O  O25  1  0.12541503  0.05460227  0.56241702  1
  O  O26  1  0.87458497  0.44539773  0.06241702  1
  O  O27  1  0.37458497  0.55460227  0.43758298  1
  O  O28  1  0.37458497  0.05460227  0.06241702  1
  O  O29  1  0.87458497  0.94539773  0.43758298  1
  O  O30  1  0.12541503  0.55460227  0.93758298  1
  O  O31  1  0.62541503  0.44539773  0.56241702  1
  O  O32  1  0.89875992  0.81939125  0.02297556  1
  O  O33  1  0.39875992  0.18060875  0.47702444  1
  O  O34  1  0.60124008  0.31939125  0.97702444  1
  O  O35  1  0.10124008  0.68060875  0.52297556  1
  O  O36  1  0.10124008  0.18060875  0.97702444  1
  O  O37  1  0.60124008  0.81939125  0.52297556  1
  O  O38  1  0.39875992  0.68060875  0.02297556  1
  O  O39  1  0.75289924  0.22688135  0.63510496  1
  Ca  Ca40  1  0.55559846  0.35966391  0.40673884  1
  Ca  Ca41  1  0.05559846  0.64033609  0.09326116  1
  Ca  Ca42  1  0.94440154  0.85966391  0.59326116  1
  Ca  Ca43  1  0.44440154  0.14033609  0.90673884  1
  Ca  Ca44  1  0.44440154  0.64033609  0.59326116  1
  Ca  Ca45  1  0.94440154  0.35966391  0.90673884  1
  Ca  Ca46  1  0.05559846  0.14033609  0.40673884  1
  Ca  Ca47  1  0.55559846  0.85966391  0.09326116  1
  Se  Se48  1  0.88940896  0.13594196  0.72924389  1
  Se  Se49  1  0.38940896  0.86405804  0.77075611  1
  Se  Se50  1  0.61059104  0.63594196  0.27075611  1
  Se  Se51  1  0.11059104  0.36405804  0.22924389  1
  Se  Se52  1  0.11059104  0.86405804  0.27075611  1
  Se  Se53  1  0.61059104  0.13594196  0.22924389  1
  Se  Se54  1  0.38940896  0.36405804  0.72924389  1
  Se  Se55  1  0.88940896  0.63594196  0.77075611  1
  Se  Se56  1  0.85330185  0.37522551  0.58267721  1
  Se  Se57  1  0.35330185  0.62477449  0.91732279  1
  Se  Se58  1  0.64669815  0.87522551  0.41732279  1
  Se  Se59  1  0.14669815  0.12477449  0.08267721  1
  Se  Se60  1  0.14669815  0.62477449  0.41732279  1
  Se  Se61  1  0.64669815  0.37522551  0.08267721  1
  Se  Se62  1  0.35330185  0.12477449  0.58267721  1
  Se  Se63  1  0.85330185  0.87522551  0.91732279  1
