# generated using pymatgen
data_SbI5F6
_symmetry_space_group_name_H-M   'P 1'
_cell_length_a   8.69107736
_cell_length_b   8.86240710
_cell_length_c   15.80004220
_cell_angle_alpha   101.57974351
_cell_angle_beta   92.60220557
_cell_angle_gamma   111.68352467
_symmetry_Int_Tables_number   1
_chemical_formula_structural   SbI5F6
_chemical_formula_sum   'Sb3 I15 F18'
_cell_volume   1098.25032915
_cell_formula_units_Z   3
loop_
 _symmetry_equiv_pos_site_id
 _symmetry_equiv_pos_as_xyz
  1  'x, y, z'
loop_
 _atom_site_type_symbol
 _atom_site_label
 _atom_site_symmetry_multiplicity
 _atom_site_fract_x
 _atom_site_fract_y
 _atom_site_fract_z
 _atom_site_occupancy
  F  F0  1  0.73651303  0.95373114  0.71669769  1
  F  F1  1  0.29474942  0.75262398  0.58741317  1
  F  F2  1  0.70525058  0.24737602  0.41258683  1
  F  F3  1  0.02581966  0.16069375  0.93001035  1
  F  F4  1  0.97418034  0.83930625  0.06998965  1
  F  F5  1  0.08227476  0.87398877  0.91185084  1
  F  F6  1  0.91772524  0.12601123  0.08814916  1
  F  F7  1  0.22335765  0.12612954  0.05671118  1
  F  F8  1  0.77664235  0.87387046  0.94328882  1
  F  F9  1  0.40422115  0.25588421  0.44372799  1
  F  F10  1  0.26348697  0.04626886  0.28330231  1
  F  F11  1  0.57119722  0.03935188  0.25310467  1
  F  F12  1  0.42880278  0.96064812  0.74689533  1
  F  F13  1  0.43646914  0.95634322  0.39786820  1
  F  F14  1  0.56353086  0.04365678  0.60213180  1
  F  F15  1  0.53312599  0.33583641  0.29830761  1
  F  F16  1  0.46687401  0.66416359  0.70169239  1
  F  F17  1  0.59577885  0.74411579  0.55627201  1
  Sb  Sb18  1  0.48298217  0.14370861  0.34684258  1
  Sb  Sb19  1  0.51701783  0.85629139  0.65315742  1
  Sb  Sb20  1  0.00000000  0.00000000  0.00000000  1
  I  I21  1  0.05216630  0.34073959  0.26030214  1
  I  I22  1  0.66094226  0.41945792  0.09245226  1
  I  I23  1  0.44091457  0.81545050  0.06697073  1
  I  I24  1  0.55908543  0.18454950  0.93302927  1
  I  I25  1  0.24368971  0.58223779  0.16307273  1
  I  I26  1  0.75631029  0.41776221  0.83692727  1
  I  I27  1  0.33905774  0.58054208  0.90754774  1
  I  I28  1  0.94783370  0.65926041  0.73969786  1
  I  I29  1  0.17454951  0.54131294  0.42090824  1
  I  I30  1  0.82545049  0.45868706  0.57909176  1
  I  I31  1  0.00000000  0.00000000  0.50000000  1
  I  I32  1  0.29318181  0.26377408  0.60792541  1
  I  I33  1  0.70681819  0.73622592  0.39207459  1
  I  I34  1  0.16938683  0.25972167  0.76445865  1
  I  I35  1  0.83061317  0.74027833  0.23554135  1
