# generated using pymatgen
data_Li5MnHO4
_symmetry_space_group_name_H-M   'P 1'
_cell_length_a   8.81467338
_cell_length_b   9.16164476
_cell_length_c   10.92114211
_cell_angle_alpha   90.00000000
_cell_angle_beta   90.00000000
_cell_angle_gamma   90.00000000
_symmetry_Int_Tables_number   1
_chemical_formula_structural   Li5MnHO4
_chemical_formula_sum   'Li40 Mn8 H8 O32'
_cell_volume   881.95764879
_cell_formula_units_Z   8
loop_
 _symmetry_equiv_pos_site_id
 _symmetry_equiv_pos_as_xyz
  1  'x, y, z'
loop_
 _atom_site_type_symbol
 _atom_site_label
 _atom_site_symmetry_multiplicity
 _atom_site_fract_x
 _atom_site_fract_y
 _atom_site_fract_z
 _atom_site_occupancy
  Li  Li0  1  0.97894464  0.58020794  0.19544779  1
  Li  Li1  1  0.97894464  0.91979206  0.19544779  1
  Li  Li2  1  0.06726315  0.07325665  0.43441331  1
  Li  Li3  1  0.06726315  0.42674335  0.43441331  1
  Li  Li4  1  0.07104475  0.75000000  0.43887805  1
  Li  Li5  1  0.11985152  0.25000000  0.98101685  1
  Li  Li6  1  0.11006763  0.56824890  0.99042270  1
  Li  Li7  1  0.11006763  0.93175110  0.99042270  1
  Li  Li8  1  0.20312502  0.57678486  0.63976444  1
  Li  Li9  1  0.20312502  0.92321514  0.63976444  1
  Li  Li10  1  0.29687498  0.07678486  0.13976444  1
  Li  Li11  1  0.29687498  0.42321514  0.13976444  1
  Li  Li12  1  0.38993237  0.06824890  0.49042270  1
  Li  Li13  1  0.38993237  0.43175110  0.49042270  1
  Li  Li14  1  0.38014848  0.75000000  0.48101685  1
  Li  Li15  1  0.42895525  0.25000000  0.93887805  1
  Li  Li16  1  0.43273685  0.57325665  0.93441331  1
  Li  Li17  1  0.43273685  0.92674335  0.93441331  1
  Li  Li18  1  0.52105536  0.08020794  0.69544779  1
  Li  Li19  1  0.52105536  0.41979206  0.69544779  1
  Li  Li20  1  0.47894464  0.58020794  0.30455221  1
  Li  Li21  1  0.47894464  0.91979206  0.30455221  1
  Li  Li22  1  0.56726315  0.07325665  0.06558669  1
  Li  Li23  1  0.56726315  0.42674335  0.06558669  1
  Li  Li24  1  0.57104475  0.75000000  0.06112195  1
  Li  Li25  1  0.61985152  0.25000000  0.51898315  1
  Li  Li26  1  0.61006763  0.56824890  0.50957730  1
  Li  Li27  1  0.61006763  0.93175110  0.50957730  1
  Li  Li28  1  0.70312502  0.57678486  0.86023556  1
  Li  Li29  1  0.70312502  0.92321514  0.86023556  1
  Li  Li30  1  0.79687498  0.07678486  0.36023556  1
  Li  Li31  1  0.79687498  0.42321514  0.36023556  1
  Li  Li32  1  0.88993237  0.06824890  0.00957730  1
  Li  Li33  1  0.88993237  0.43175110  0.00957730  1
  Li  Li34  1  0.88014848  0.75000000  0.01898315  1
  Li  Li35  1  0.92895525  0.25000000  0.56112195  1
  Li  Li36  1  0.93273685  0.92674335  0.56558669  1
  Li  Li37  1  0.93273685  0.57325665  0.56558669  1
  Li  Li38  1  0.02105536  0.08020794  0.80455221  1
  Li  Li39  1  0.02105536  0.41979206  0.80455221  1
  Mn  Mn40  1  0.01893122  0.25000000  0.21493873  1
  Mn  Mn41  1  0.20941474  0.25000000  0.65614930  1
  Mn  Mn42  1  0.29058526  0.75000000  0.15614930  1
  Mn  Mn43  1  0.48106878  0.75000000  0.71493873  1
  Mn  Mn44  1  0.51893122  0.25000000  0.28506127  1
  Mn  Mn45  1  0.70941474  0.25000000  0.84385070  1
  Mn  Mn46  1  0.79058526  0.75000000  0.34385070  1
  Mn  Mn47  1  0.98106878  0.75000000  0.78506127  1
  H  H48  1  0.17248969  0.57861001  0.33144439  1
  H  H49  1  0.17248969  0.92138999  0.33144439  1
  H  H50  1  0.32751031  0.07861001  0.83144439  1
  H  H51  1  0.32751031  0.42138999  0.83144439  1
  H  H52  1  0.67248969  0.57861001  0.16855561  1
  H  H53  1  0.67248969  0.92138999  0.16855561  1
  H  H54  1  0.82751031  0.07861001  0.66855561  1
  H  H55  1  0.82751031  0.42138999  0.66855561  1
  O  O56  1  0.06243545  0.75000000  0.61651214  1
  O  O57  1  0.07937458  0.41810666  0.11353303  1
  O  O58  1  0.07937458  0.08189334  0.11353303  1
  O  O59  1  0.06220698  0.41469000  0.61831924  1
  O  O60  1  0.06220698  0.08531000  0.61831924  1
  O  O61  1  0.07706339  0.75000000  0.10309718  1
  O  O62  1  0.23268180  0.06367706  0.87741666  1
  O  O63  1  0.23268180  0.43632294  0.87741666  1
  O  O64  1  0.26731820  0.56367706  0.37741666  1
  O  O65  1  0.26731820  0.93632294  0.37741666  1
  O  O66  1  0.42293661  0.25000000  0.60309718  1
  O  O67  1  0.43779302  0.58531000  0.11831924  1
  O  O68  1  0.43779302  0.91469000  0.11831924  1
  O  O69  1  0.42062542  0.58189334  0.61353303  1
  O  O70  1  0.42062542  0.91810666  0.61353303  1
  O  O71  1  0.43756455  0.25000000  0.11651214  1
  O  O72  1  0.56243545  0.75000000  0.88348786  1
  O  O73  1  0.57937458  0.08189334  0.38646697  1
  O  O74  1  0.57937458  0.41810666  0.38646697  1
  O  O75  1  0.56220698  0.08531000  0.88168076  1
  O  O76  1  0.56220698  0.41469000  0.88168076  1
  O  O77  1  0.57706339  0.75000000  0.39690282  1
  O  O78  1  0.73268180  0.06367706  0.62258334  1
  O  O79  1  0.73268180  0.43632294  0.62258334  1
  O  O80  1  0.76731820  0.56367706  0.12258334  1
  O  O81  1  0.76731820  0.93632294  0.12258334  1
  O  O82  1  0.92293661  0.25000000  0.89690282  1
  O  O83  1  0.93779302  0.91469000  0.38168076  1
  O  O84  1  0.93779302  0.58531000  0.38168076  1
  O  O85  1  0.92062542  0.91810666  0.88646697  1
  O  O86  1  0.92062542  0.58189334  0.88646697  1
  O  O87  1  0.93756455  0.25000000  0.38348786  1
