# generated using pymatgen
data_Li2Mn2C2O7
_symmetry_space_group_name_H-M   'P 1'
_cell_length_a   6.85324901
_cell_length_b   9.62748570
_cell_length_c   10.33578867
_cell_angle_alpha   64.58251063
_cell_angle_beta   90.00005155
_cell_angle_gamma   90.00001723
_symmetry_Int_Tables_number   1
_chemical_formula_structural   Li2Mn2C2O7
_chemical_formula_sum   'Li8 Mn8 C8 O28'
_cell_volume   615.94086878
_cell_formula_units_Z   4
loop_
 _symmetry_equiv_pos_site_id
 _symmetry_equiv_pos_as_xyz
  1  'x, y, z'
loop_
 _atom_site_type_symbol
 _atom_site_label
 _atom_site_symmetry_multiplicity
 _atom_site_fract_x
 _atom_site_fract_y
 _atom_site_fract_z
 _atom_site_occupancy
  Li  Li0  1  0.25284973  0.23934354  0.49637679  1
  Li  Li1  1  0.64606955  0.07616968  0.35077060  1
  Li  Li2  1  0.14606748  0.42383183  0.64922920  1
  Li  Li3  1  0.75285048  0.26065479  0.50362422  1
  Li  Li4  1  0.24715382  0.73934599  0.49637514  1
  Li  Li5  1  0.85393488  0.57616836  0.35077172  1
  Li  Li6  1  0.35393210  0.92383035  0.64922864  1
  Li  Li7  1  0.74714958  0.76065522  0.50362476  1
  Mn  Mn8  1  0.95287133  0.08572003  0.83610827  1
  Mn  Mn9  1  0.54712665  0.58572067  0.83610512  1
  Mn  Mn10  1  0.45287519  0.41428059  0.16389237  1
  Mn  Mn11  1  0.04712253  0.91428045  0.16389492  1
  Mn  Mn12  1  0.63537619  0.22646384  0.98495681  1
  Mn  Mn13  1  0.86462880  0.72645919  0.98495895  1
  Mn  Mn14  1  0.13537788  0.27353654  0.01504477  1
  Mn  Mn15  1  0.36463359  0.77354417  0.01503691  1
  C  C16  1  0.35518703  0.14967808  0.78323240  1
  C  C17  1  0.76184312  0.43494276  0.65058207  1
  C  C18  1  0.26184434  0.06505835  0.34941569  1
  C  C19  1  0.14481569  0.64967904  0.78323262  1
  C  C20  1  0.85518874  0.35032097  0.21676788  1
  C  C21  1  0.73815080  0.93494349  0.65058243  1
  C  C22  1  0.23815123  0.56505572  0.34941865  1
  C  C23  1  0.64481406  0.85032279  0.21676654  1
  O  O24  1  0.51210428  0.11796079  0.85519910  1
  O  O25  1  0.40811584  0.37054663  0.98707638  1
  O  O26  1  0.32055658  0.10052211  0.68516292  1
  O  O27  1  0.21556711  0.23183316  0.80520339  1
  O  O28  1  0.76095341  0.05580461  0.53072119  1
  O  O29  1  0.70059666  0.43110673  0.76993595  1
  O  O30  1  0.85263758  0.31549470  0.64857922  1
  O  O31  1  0.98790256  0.61795953  0.85519975  1
  O  O32  1  0.09188635  0.87054581  0.98707923  1
  O  O33  1  0.17944491  0.60052245  0.68516433  1
  O  O34  1  0.28443825  0.73183507  0.80520405  1
  O  O35  1  0.35263714  0.18450588  0.35141995  1
  O  O36  1  0.20059847  0.06889376  0.23006262  1
  O  O37  1  0.73904071  0.55580495  0.53072331  1
  O  O38  1  0.26095386  0.44419432  0.46927778  1
  O  O39  1  0.79940387  0.93110381  0.76993571  1
  O  O40  1  0.64735160  0.81549768  0.64857663  1
  O  O41  1  0.71556645  0.26816623  0.19479686  1
  O  O42  1  0.82056133  0.39947802  0.31483546  1
  O  O43  1  0.90811451  0.12945401  0.01292386  1
  O  O44  1  0.01210140  0.38203786  0.14480156  1
  O  O45  1  0.14735288  0.68450161  0.35142260  1
  O  O46  1  0.29940421  0.56889360  0.23006613  1
  O  O47  1  0.23904160  0.94419669  0.46927588  1
  O  O48  1  0.78443531  0.76816533  0.19479746  1
  O  O49  1  0.67944747  0.89947733  0.31483791  1
  O  O50  1  0.59188771  0.62945119  0.01292188  1
  O  O51  1  0.48789817  0.88204069  0.14480042  1
