# generated using pymatgen
data_K(V5S8)2
_symmetry_space_group_name_H-M   'P 1'
_cell_length_a   6.47140567
_cell_length_b   8.48001482
_cell_length_c   17.55674823
_cell_angle_alpha   104.33330148
_cell_angle_beta   90.00000000
_cell_angle_gamma   90.00000000
_symmetry_Int_Tables_number   1
_chemical_formula_structural   K(V5S8)2
_chemical_formula_sum   'K2 V20 S32'
_cell_volume   933.48152232
_cell_formula_units_Z   2
loop_
 _symmetry_equiv_pos_site_id
 _symmetry_equiv_pos_as_xyz
  1  'x, y, z'
loop_
 _atom_site_type_symbol
 _atom_site_label
 _atom_site_symmetry_multiplicity
 _atom_site_fract_x
 _atom_site_fract_y
 _atom_site_fract_z
 _atom_site_occupancy
  S  S0  1  0.26343908  0.67288968  0.57221357  1
  S  S1  1  0.51427887  0.68583319  0.07646280  1
  S  S2  1  0.26472192  0.00535459  0.16147765  1
  S  S3  1  0.26472192  0.99464541  0.83852235  1
  S  S4  1  0.76257614  0.00450902  0.16048259  1
  S  S5  1  0.76257614  0.99549098  0.83951741  1
  S  S6  1  0.01283165  0.00570127  0.66171342  1
  S  S7  1  0.01283165  0.99429873  0.33828658  1
  S  S8  1  0.51476681  0.00495225  0.66032944  1
  S  S9  1  0.51476681  0.99504775  0.33967056  1
  S  S10  1  0.01371232  0.33985967  0.25951904  1
  S  S11  1  0.01371232  0.66014033  0.74048096  1
  S  S12  1  0.51362139  0.34180216  0.25933194  1
  S  S13  1  0.51362139  0.65819784  0.74066806  1
  S  S14  1  0.76381506  0.34219520  0.75944438  1
  S  S15  1  0.76381506  0.65780480  0.24055562  1
  S  S16  1  0.26388295  0.34033544  0.75957699  1
  S  S17  1  0.26388295  0.65966456  0.24042301  1
  S  S18  1  0.26774035  0.31524128  0.08366113  1
  S  S19  1  0.26774035  0.68475872  0.91633887  1
  S  S20  1  0.76031980  0.31584802  0.08388619  1
  S  S21  1  0.76031980  0.68415198  0.91611381  1
  S  S22  1  0.00964457  0.31576571  0.58389165  1
  S  S23  1  0.00964457  0.68423429  0.41610835  1
  S  S24  1  0.51693279  0.31583771  0.58386600  1
  S  S25  1  0.51693279  0.68416229  0.41613400  1
  S  S26  1  0.26343908  0.32711032  0.42778643  1
  S  S27  1  0.01434793  0.67265239  0.07215693  1
  S  S28  1  0.76333640  0.31415517  0.42357568  1
  S  S29  1  0.76333640  0.68584483  0.57642432  1
  S  S30  1  0.01434793  0.32734761  0.92784307  1
  S  S31  1  0.51427887  0.31416681  0.92353720  1
  K  K32  1  0.01019874  0.00000000  0.00000000  1
  K  K33  1  0.25981830  0.00000000  0.50000000  1
  V  V34  1  0.26555203  0.14120863  0.29013205  1
  V  V35  1  0.26555203  0.85879137  0.70986795  1
  V  V36  1  0.76192393  0.13881241  0.28939471  1
  V  V37  1  0.76192393  0.86118759  0.71060529  1
  V  V38  1  0.01253974  0.14191653  0.79032305  1
  V  V39  1  0.01253974  0.85808347  0.20967695  1
  V  V40  1  0.51499041  0.13909680  0.78935489  1
  V  V41  1  0.51499041  0.86090320  0.21064511  1
  V  V42  1  0.01444699  0.49411233  0.14774357  1
  V  V43  1  0.01444699  0.50588767  0.85225643  1
  V  V44  1  0.51341461  0.49536692  0.14736989  1
  V  V45  1  0.51341461  0.50463308  0.85263011  1
  V  V46  1  0.26333363  0.49440816  0.64780445  1
  V  V47  1  0.26333363  0.50559184  0.35219555  1
  V  V48  1  0.76371542  0.49558678  0.64748402  1
  V  V49  1  0.76371542  0.50441322  0.35251598  1
  V  V50  1  0.29034489  0.50000000  0.00000000  1
  V  V51  1  0.73824012  0.50000000  0.00000000  1
  V  V52  1  0.98738190  0.50000000  0.50000000  1
  V  V53  1  0.53924645  0.50000000  0.50000000  1
