# generated using pymatgen
data_La2Re3B7
_symmetry_space_group_name_H-M   'P 1'
_cell_length_a   6.80857516
_cell_length_b   7.69797293
_cell_length_c   11.68813269
_cell_angle_alpha   90.00000000
_cell_angle_beta   90.00000000
_cell_angle_gamma   90.00000000
_symmetry_Int_Tables_number   1
_chemical_formula_structural   La2Re3B7
_chemical_formula_sum   'La8 Re12 B28'
_cell_volume   612.60106695
_cell_formula_units_Z   4
loop_
 _symmetry_equiv_pos_site_id
 _symmetry_equiv_pos_as_xyz
  1  'x, y, z'
loop_
 _atom_site_type_symbol
 _atom_site_label
 _atom_site_symmetry_multiplicity
 _atom_site_fract_x
 _atom_site_fract_y
 _atom_site_fract_z
 _atom_site_occupancy
  B  B0  1  0.63317500  0.50000000  0.25000000  1
  B  B1  1  0.36682500  0.00000000  0.25000000  1
  B  B2  1  0.36682500  0.50000000  0.75000000  1
  B  B3  1  0.63317500  0.00000000  0.75000000  1
  B  B4  1  0.69815491  0.12916811  0.03829259  1
  B  B5  1  0.69815491  0.87083189  0.46170741  1
  B  B6  1  0.30184509  0.62916811  0.46170741  1
  B  B7  1  0.30184509  0.37083189  0.03829259  1
  B  B8  1  0.30184509  0.87083189  0.96170741  1
  B  B9  1  0.30184509  0.12916811  0.53829259  1
  B  B10  1  0.69815491  0.37083189  0.53829259  1
  B  B11  1  0.69815491  0.62916811  0.96170741  1
  B  B12  1  0.87734017  0.46029881  0.18307806  1
  B  B13  1  0.87734017  0.53970119  0.31692194  1
  B  B14  1  0.12265983  0.96029881  0.31692194  1
  B  B15  1  0.12265983  0.03970119  0.18307806  1
  B  B16  1  0.12265983  0.53970119  0.81692194  1
  B  B17  1  0.12265983  0.46029881  0.68307806  1
  B  B18  1  0.87734017  0.03970119  0.68307806  1
  B  B19  1  0.87734017  0.96029881  0.81692194  1
  B  B20  1  0.89644566  0.96678335  0.54109528  1
  B  B21  1  0.89644566  0.03321665  0.95890472  1
  B  B22  1  0.10355434  0.46678335  0.95890472  1
  B  B23  1  0.10355434  0.53321665  0.54109528  1
  B  B24  1  0.10355434  0.03321665  0.45890472  1
  B  B25  1  0.10355434  0.96678335  0.04109528  1
  B  B26  1  0.89644566  0.53321665  0.04109528  1
  B  B27  1  0.89644566  0.46678335  0.45890472  1
  La  La28  1  0.76410313  0.67696154  0.67787678  1
  La  La29  1  0.76410313  0.32303846  0.82212322  1
  La  La30  1  0.23589687  0.17696154  0.82212322  1
  La  La31  1  0.23589687  0.82303846  0.67787678  1
  La  La32  1  0.23589687  0.32303846  0.32212322  1
  La  La33  1  0.23589687  0.67696154  0.17787678  1
  La  La34  1  0.76410313  0.82303846  0.17787678  1
  La  La35  1  0.76410313  0.17696154  0.32212322  1
  Re  Re36  1  0.39466975  0.59132426  0.91971873  1
  Re  Re37  1  0.39466975  0.40867574  0.58028127  1
  Re  Re38  1  0.60533025  0.09132426  0.58028127  1
  Re  Re39  1  0.60533025  0.90867574  0.91971873  1
  Re  Re40  1  0.39466975  0.09132426  0.08028127  1
  Re  Re41  1  0.39466975  0.90867574  0.41971873  1
  Re  Re42  1  0.60533025  0.59132426  0.41971873  1
  Re  Re43  1  0.60533025  0.40867574  0.08028127  1
  Re  Re44  1  0.00000000  0.75000000  0.93185394  1
  Re  Re45  1  0.00000000  0.25000000  0.56814606  1
  Re  Re46  1  0.00000000  0.25000000  0.06814606  1
  Re  Re47  1  0.00000000  0.75000000  0.43185394  1
