# generated using pymatgen
data_RhBr3
_symmetry_space_group_name_H-M   'P 1'
_cell_length_a   6.43865253
_cell_length_b   6.43865253
_cell_length_c   6.99509170
_cell_angle_alpha   98.77097523
_cell_angle_beta   98.77097519
_cell_angle_gamma   120.00414847
_symmetry_Int_Tables_number   1
_chemical_formula_structural   RhBr3
_chemical_formula_sum   'Rh2 Br6'
_cell_volume   239.16358316
_cell_formula_units_Z   2
loop_
 _symmetry_equiv_pos_site_id
 _symmetry_equiv_pos_as_xyz
  1  'x, y, z'
loop_
 _atom_site_type_symbol
 _atom_site_label
 _atom_site_symmetry_multiplicity
 _atom_site_fract_x
 _atom_site_fract_y
 _atom_site_fract_z
 _atom_site_occupancy
  Br  Br0  1  0.92434714  0.56980648  0.21098641  1
  Br  Br1  1  0.43019352  0.07565286  0.78901359  1
  Br  Br2  1  0.78434998  0.78434998  0.78858189  1
  Br  Br3  1  0.21565002  0.21565002  0.21141811  1
  Br  Br4  1  0.56980648  0.92434714  0.21098641  1
  Br  Br5  1  0.07565286  0.43019352  0.78901359  1
  Rh  Rh6  1  0.16666275  0.83333725  0.00000000  1
  Rh  Rh7  1  0.83333725  0.16666275  0.00000000  1
