# generated using pymatgen
data_Nb3Cl7
_symmetry_space_group_name_H-M   'P 1'
_cell_length_a   9.53383011
_cell_length_b   9.53383011
_cell_length_c   11.30520734
_cell_angle_alpha   90.00000000
_cell_angle_beta   90.00000000
_cell_angle_gamma   91.64748334
_symmetry_Int_Tables_number   1
_chemical_formula_structural   Nb3Cl7
_chemical_formula_sum   'Nb12 Cl28'
_cell_volume   1027.14980629
_cell_formula_units_Z   4
loop_
 _symmetry_equiv_pos_site_id
 _symmetry_equiv_pos_as_xyz
  1  'x, y, z'
loop_
 _atom_site_type_symbol
 _atom_site_label
 _atom_site_symmetry_multiplicity
 _atom_site_fract_x
 _atom_site_fract_y
 _atom_site_fract_z
 _atom_site_occupancy
  Cl  Cl0  1  0.88260746  0.38260746  0.25000000  1
  Cl  Cl1  1  0.61739254  0.11739254  0.75000000  1
  Cl  Cl2  1  0.11739254  0.61739254  0.75000000  1
  Cl  Cl3  1  0.38260746  0.88260746  0.25000000  1
  Cl  Cl4  1  0.10148766  0.34948573  0.01722314  1
  Cl  Cl5  1  0.39851234  0.15051427  0.51722314  1
  Cl  Cl6  1  0.84948573  0.60148766  0.48277686  1
  Cl  Cl7  1  0.65051427  0.89851234  0.98277686  1
  Cl  Cl8  1  0.89851234  0.65051427  0.98277686  1
  Cl  Cl9  1  0.60148766  0.84948573  0.48277686  1
  Cl  Cl10  1  0.15051427  0.39851234  0.51722314  1
  Cl  Cl11  1  0.34948573  0.10148766  0.01722314  1
  Cl  Cl12  1  0.25233456  0.74766544  0.00000000  1
  Cl  Cl13  1  0.24766544  0.75233456  0.50000000  1
  Cl  Cl14  1  0.74766544  0.25233456  0.00000000  1
  Cl  Cl15  1  0.75233456  0.24766544  0.50000000  1
  Cl  Cl16  1  0.13538329  0.13538329  0.26459469  1
  Cl  Cl17  1  0.36461671  0.36461671  0.76459469  1
  Cl  Cl18  1  0.63538329  0.63538329  0.23540531  1
  Cl  Cl19  1  0.86461671  0.86461671  0.73540531  1
  Cl  Cl20  1  0.53076429  0.28422509  0.25775321  1
  Cl  Cl21  1  0.96923571  0.21577491  0.75775321  1
  Cl  Cl22  1  0.78422509  0.03076429  0.24224679  1
  Cl  Cl23  1  0.71577491  0.46923571  0.74224679  1
  Cl  Cl24  1  0.46923571  0.71577491  0.74224679  1
  Cl  Cl25  1  0.03076429  0.78422509  0.24224679  1
  Cl  Cl26  1  0.21577491  0.96923571  0.75775321  1
  Cl  Cl27  1  0.28422509  0.53076429  0.25775321  1
  Nb  Nb28  1  0.12868241  0.12868241  0.90919914  1
  Nb  Nb29  1  0.37131759  0.37131759  0.40919914  1
  Nb  Nb30  1  0.62868241  0.62868241  0.59080086  1
  Nb  Nb31  1  0.87131759  0.87131759  0.09080086  1
  Nb  Nb32  1  0.94820357  0.16615968  0.11245242  1
  Nb  Nb33  1  0.55179643  0.33384032  0.61245242  1
  Nb  Nb34  1  0.66615968  0.44820357  0.38754758  1
  Nb  Nb35  1  0.83384032  0.05179643  0.88754758  1
  Nb  Nb36  1  0.05179643  0.83384032  0.88754758  1
  Nb  Nb37  1  0.44820357  0.66615968  0.38754758  1
  Nb  Nb38  1  0.33384032  0.55179643  0.61245242  1
  Nb  Nb39  1  0.16615968  0.94820357  0.11245242  1
