# generated using pymatgen
data_ErNiB4
_symmetry_space_group_name_H-M   'P 1'
_cell_length_a   6.79174478
_cell_length_b   6.79174478
_cell_length_c   6.79174477
_cell_angle_alpha   102.64839129
_cell_angle_beta   112.98662854
_cell_angle_gamma   112.98662859
_symmetry_Int_Tables_number   1
_chemical_formula_structural   ErNiB4
_chemical_formula_sum   'Er4 Ni4 B16'
_cell_volume   238.64687224
_cell_formula_units_Z   4
loop_
 _symmetry_equiv_pos_site_id
 _symmetry_equiv_pos_as_xyz
  1  'x, y, z'
loop_
 _atom_site_type_symbol
 _atom_site_label
 _atom_site_symmetry_multiplicity
 _atom_site_fract_x
 _atom_site_fract_y
 _atom_site_fract_z
 _atom_site_occupancy
  B  B0  1  0.53361532  0.11370805  0.11370805  1
  B  B1  1  0.46638468  0.58009272  0.58009272  1
  B  B2  1  0.46638468  0.88629195  0.88629195  1
  B  B3  1  0.00000000  0.58009272  0.11370805  1
  B  B4  1  0.00000000  0.11370805  0.58009272  1
  B  B5  1  0.00000000  0.88629195  0.41990728  1
  B  B6  1  0.00000000  0.41990728  0.88629195  1
  B  B7  1  0.53361532  0.41990728  0.41990728  1
  B  B8  1  0.38712325  0.11149025  0.27563300  1
  B  B9  1  0.16414275  0.27563300  0.88850975  1
  B  B10  1  0.83585725  0.72436700  0.11149025  1
  B  B11  1  0.83585725  0.11149025  0.72436700  1
  B  B12  1  0.16414275  0.88850975  0.27563300  1
  B  B13  1  0.61287675  0.88850975  0.72436700  1
  B  B14  1  0.61287675  0.72436700  0.88850975  1
  B  B15  1  0.38712325  0.27563300  0.11149025  1
  Ni  Ni16  1  0.22844141  0.50000000  0.72844141  1
  Ni  Ni17  1  0.22844141  0.72844141  0.50000000  1
  Ni  Ni18  1  0.77155859  0.27155859  0.50000000  1
  Ni  Ni19  1  0.77155859  0.50000000  0.27155859  1
  Er  Er20  1  0.50000000  0.25000000  0.75000000  1
  Er  Er21  1  0.50000000  0.75000000  0.25000000  1
  Er  Er22  1  0.00000000  0.79662218  0.79662218  1
  Er  Er23  1  0.00000000  0.20337782  0.20337782  1
