# generated using pymatgen
data_BiAsO4
_symmetry_space_group_name_H-M   'P 1'
_cell_length_a   6.83591309
_cell_length_b   6.99197319
_cell_length_c   7.28856735
_cell_angle_alpha   90.00000000
_cell_angle_beta   90.00000000
_cell_angle_gamma   105.30109656
_symmetry_Int_Tables_number   1
_chemical_formula_structural   BiAsO4
_chemical_formula_sum   'Bi4 As4 O16'
_cell_volume   336.01933652
_cell_formula_units_Z   4
loop_
 _symmetry_equiv_pos_site_id
 _symmetry_equiv_pos_as_xyz
  1  'x, y, z'
loop_
 _atom_site_type_symbol
 _atom_site_label
 _atom_site_symmetry_multiplicity
 _atom_site_fract_x
 _atom_site_fract_y
 _atom_site_fract_z
 _atom_site_occupancy
  O  O0  1  0.22072655  0.60848060  0.29286679  1
  O  O1  1  0.27927345  0.89151940  0.79286679  1
  O  O2  1  0.77927345  0.39151940  0.70713321  1
  O  O3  1  0.72072655  0.10848060  0.20713321  1
  O  O4  1  0.33547105  0.97316331  0.39847969  1
  O  O5  1  0.16452895  0.52683669  0.89847969  1
  O  O6  1  0.66452895  0.02683669  0.60152031  1
  O  O7  1  0.83547105  0.47316331  0.10152031  1
  O  O8  1  0.42242817  0.26279706  1.00145557  1
  O  O9  1  0.07757183  0.23720294  0.50145557  1
  O  O10  1  0.57757183  0.73720294  -0.00145557  1
  O  O11  1  0.92242817  0.76279706  0.49854443  1
  O  O12  1  0.52059762  0.39035558  0.35615260  1
  O  O13  1  0.97940238  0.10964442  0.85615260  1
  O  O14  1  0.47940238  0.60964442  0.64384740  1
  O  O15  1  0.02059762  0.89035558  0.14384740  1
  As  As16  1  0.11004670  0.79827052  0.33752450  1
  As  As17  1  0.38995330  0.70172948  0.83752450  1
  As  As18  1  0.88995330  0.20172948  0.66247550  1
  As  As19  1  0.61004670  0.29827052  0.16247550  1
  Bi  Bi20  1  0.58030211  0.78138409  0.36695290  1
  Bi  Bi21  1  0.91969789  0.71861591  0.86695290  1
  Bi  Bi22  1  0.41969789  0.21861591  0.63304710  1
  Bi  Bi23  1  0.08030211  0.28138409  0.13304710  1
