# generated using pymatgen
data_LiMnOF2
_symmetry_space_group_name_H-M   'P 1'
_cell_length_a   10.00059897
_cell_length_b   9.00381880
_cell_length_c   5.62763331
_cell_angle_alpha   90.00000000
_cell_angle_beta   90.00000000
_cell_angle_gamma   90.00000000
_symmetry_Int_Tables_number   1
_chemical_formula_structural   LiMnOF2
_chemical_formula_sum   'Li8 Mn8 O8 F16'
_cell_volume   506.73225588
_cell_formula_units_Z   8
loop_
 _symmetry_equiv_pos_site_id
 _symmetry_equiv_pos_as_xyz
  1  'x, y, z'
loop_
 _atom_site_type_symbol
 _atom_site_label
 _atom_site_symmetry_multiplicity
 _atom_site_fract_x
 _atom_site_fract_y
 _atom_site_fract_z
 _atom_site_occupancy
  Li  Li0  1  0.20200925  0.41225883  0.55245819  1
  Li  Li1  1  0.20200925  0.58774117  0.05245819  1
  Li  Li2  1  0.29799075  0.08774117  0.05245819  1
  Li  Li3  1  0.29799075  0.91225883  0.55245819  1
  Li  Li4  1  0.68932670  0.06755095  0.47036392  1
  Li  Li5  1  0.68932670  0.93244905  0.97036392  1
  Li  Li6  1  0.81067330  0.43244905  0.97036392  1
  Li  Li7  1  0.81067330  0.56755095  0.47036392  1
  Mn  Mn8  1  0.01262722  0.25328849  0.24544889  1
  Mn  Mn9  1  0.01459893  0.09026409  0.75050740  1
  Mn  Mn10  1  0.01459893  0.90973591  0.25050740  1
  Mn  Mn11  1  0.01262722  0.74671151  0.74544889  1
  Mn  Mn12  1  0.48540107  0.59026409  0.75050740  1
  Mn  Mn13  1  0.48737278  0.75328849  0.24544889  1
  Mn  Mn14  1  0.48737278  0.24671151  0.74544889  1
  Mn  Mn15  1  0.48540107  0.40973591  0.25050740  1
  O  O16  1  0.09493412  0.07830498  0.10031432  1
  O  O17  1  0.09493412  0.92169502  0.60031432  1
  O  O18  1  0.08638601  0.22966478  0.54668564  1
  O  O19  1  0.08638601  0.77033522  0.04668564  1
  O  O20  1  0.41361399  0.27033522  0.04668564  1
  O  O21  1  0.41361399  0.72966478  0.54668564  1
  O  O22  1  0.40506588  0.57830498  0.10031432  1
  O  O23  1  0.40506588  0.42169502  0.60031432  1
  F  F24  1  0.14827950  0.57535587  0.72391926  1
  F  F25  1  0.14827950  0.42464413  0.22391926  1
  F  F26  1  0.35172050  0.92464413  0.22391926  1
  F  F27  1  0.35172050  0.07535587  0.72391926  1
  F  F28  1  0.62454198  0.44069837  0.89071913  1
  F  F29  1  0.62454198  0.55930163  0.39071913  1
  F  F30  1  0.58008716  0.24410544  0.42066896  1
  F  F31  1  0.58008716  0.75589456  0.92066896  1
  F  F32  1  0.63040136  0.90342830  0.29891529  1
  F  F33  1  0.63040136  0.09657170  0.79891529  1
  F  F34  1  0.86959864  0.40342830  0.29891529  1
  F  F35  1  0.86959864  0.59657170  0.79891529  1
  F  F36  1  0.91991284  0.25589456  0.92066896  1
  F  F37  1  0.91991284  0.74410544  0.42066896  1
  F  F38  1  0.87545802  0.05930163  0.39071913  1
  F  F39  1  0.87545802  0.94069837  0.89071913  1
