# generated using pymatgen
data_Ge2S3I2
_symmetry_space_group_name_H-M   'P 1'
_cell_length_a   11.33557756
_cell_length_b   11.33557756
_cell_length_c   10.01205850
_cell_angle_alpha   90.00000000
_cell_angle_beta   90.00000000
_cell_angle_gamma   120.00000000
_symmetry_Int_Tables_number   1
_chemical_formula_structural   Ge2S3I2
_chemical_formula_sum   'Ge8 S12 I8'
_cell_volume   1114.14397450
_cell_formula_units_Z   4
loop_
 _symmetry_equiv_pos_site_id
 _symmetry_equiv_pos_as_xyz
  1  'x, y, z'
loop_
 _atom_site_type_symbol
 _atom_site_label
 _atom_site_symmetry_multiplicity
 _atom_site_fract_x
 _atom_site_fract_y
 _atom_site_fract_z
 _atom_site_occupancy
  S  S0  1  0.61075600  0.12086367  0.68617600  1
  S  S1  1  0.17569473  0.72166893  1.00656238  1
  S  S2  1  0.54597420  0.82430527  1.00656238  1
  S  S3  1  0.27833107  0.45402580  1.00656238  1
  S  S4  1  0.45402580  0.17569473  -0.00656238  1
  S  S5  1  0.72166893  0.54597420  -0.00656238  1
  S  S6  1  0.82430527  0.27833107  -0.00656238  1
  S  S7  1  0.12086367  0.51010767  0.31382400  1
  S  S8  1  0.51010767  0.38924400  0.68617600  1
  S  S9  1  0.87913633  0.48989233  0.68617600  1
  S  S10  1  0.38924400  0.87913633  0.31382400  1
  S  S11  1  0.48989233  0.61075600  0.31382400  1
  Ge  Ge12  1  0.81150056  0.28163178  0.77022656  1
  Ge  Ge13  1  0.47013122  0.18849944  0.77022656  1
  Ge  Ge14  1  0.33333333  0.66666667  0.94683860  1
  Ge  Ge15  1  0.18849944  0.71836822  0.22977344  1
  Ge  Ge16  1  0.52986878  0.81150056  0.22977344  1
  Ge  Ge17  1  0.28163178  0.47013122  0.22977344  1
  Ge  Ge18  1  0.66666667  0.33333333  0.05316140  1
  Ge  Ge19  1  0.71836822  0.52986878  0.77022656  1
  I  I20  1  -0.01655615  0.21791814  0.68757566  1
  I  I21  1  0.78208186  0.76552571  0.68757566  1
  I  I22  1  1.01655615  0.78208186  0.31242434  1
  I  I23  1  0.76552571  -0.01655615  0.31242434  1
  I  I24  1  0.21791814  0.23447429  0.31242434  1
  I  I25  1  0.66666667  0.33333333  0.30512924  1
  I  I26  1  0.33333333  0.66666667  0.69487076  1
  I  I27  1  0.23447429  1.01655615  0.68757566  1
