# generated using pymatgen
data_Cd3AsCl3
_symmetry_space_group_name_H-M   'P 1'
_cell_length_a   7.22461692
_cell_length_b   8.27807981
_cell_length_c   13.46817698
_cell_angle_alpha   90.00000000
_cell_angle_beta   90.00000000
_cell_angle_gamma   90.00000000
_symmetry_Int_Tables_number   1
_chemical_formula_structural   Cd3AsCl3
_chemical_formula_sum   'Cd12 As4 Cl12'
_cell_volume   805.47719260
_cell_formula_units_Z   4
loop_
 _symmetry_equiv_pos_site_id
 _symmetry_equiv_pos_as_xyz
  1  'x, y, z'
loop_
 _atom_site_type_symbol
 _atom_site_label
 _atom_site_symmetry_multiplicity
 _atom_site_fract_x
 _atom_site_fract_y
 _atom_site_fract_z
 _atom_site_occupancy
  Cl  Cl0  1  0.80644499  0.02159893  0.66729638  1
  Cl  Cl1  1  0.30644499  0.97840107  0.83270362  1
  Cl  Cl2  1  0.19355501  0.52159893  0.33270362  1
  Cl  Cl3  1  0.69355501  0.47840107  0.16729638  1
  Cl  Cl4  1  0.19355501  0.97840107  0.33270362  1
  Cl  Cl5  1  0.69355501  0.02159893  0.16729638  1
  Cl  Cl6  1  0.80644499  0.47840107  0.66729638  1
  Cl  Cl7  1  0.30644499  0.52159893  0.83270362  1
  Cl  Cl8  1  0.30956589  0.75000000  0.08162578  1
  Cl  Cl9  1  0.80956589  0.25000000  0.41837422  1
  Cl  Cl10  1  0.69043411  0.25000000  0.91837422  1
  Cl  Cl11  1  0.19043411  0.75000000  0.58162578  1
  As  As12  1  0.85805524  0.75000000  0.91609451  1
  As  As13  1  0.35805524  0.25000000  0.58390549  1
  As  As14  1  0.14194476  0.25000000  0.08390549  1
  As  As15  1  0.64194476  0.75000000  0.41609451  1
  Cd  Cd16  1  0.50502055  0.75000000  0.23872485  1
  Cd  Cd17  1  0.00502055  0.25000000  0.26127515  1
  Cd  Cd18  1  0.49497945  0.25000000  0.76127515  1
  Cd  Cd19  1  0.99497945  0.75000000  0.73872485  1
  Cd  Cd20  1  0.50000000  0.50000000  0.50000000  1
  Cd  Cd21  1  0.00000000  0.50000000  0.00000000  1
  Cd  Cd22  1  0.50000000  0.00000000  0.50000000  1
  Cd  Cd23  1  0.00000000  0.00000000  0.00000000  1
  Cd  Cd24  1  0.99792381  0.75000000  0.41158929  1
  Cd  Cd25  1  0.49792381  0.25000000  0.08841071  1
  Cd  Cd26  1  0.00207619  0.25000000  0.58841071  1
  Cd  Cd27  1  0.50207619  0.75000000  0.91158929  1
