# generated using pymatgen
data_K2BeO2
_symmetry_space_group_name_H-M   'P 1'
_cell_length_a   5.82623107
_cell_length_b   7.13114181
_cell_length_c   8.02542425
_cell_angle_alpha   89.65297453
_cell_angle_beta   90.00000000
_cell_angle_gamma   90.00000000
_symmetry_Int_Tables_number   1
_chemical_formula_structural   K2BeO2
_chemical_formula_sum   'K8 Be4 O8'
_cell_volume   333.43164248
_cell_formula_units_Z   4
loop_
 _symmetry_equiv_pos_site_id
 _symmetry_equiv_pos_as_xyz
  1  'x, y, z'
loop_
 _atom_site_type_symbol
 _atom_site_label
 _atom_site_symmetry_multiplicity
 _atom_site_fract_x
 _atom_site_fract_y
 _atom_site_fract_z
 _atom_site_occupancy
  Be  Be0  1  0.08509970  0.37547279  0.02370341  1
  Be  Be1  1  0.41490030  0.87547279  0.52370341  1
  Be  Be2  1  0.91490030  0.62452721  0.97629659  1
  Be  Be3  1  0.58509970  0.12452721  0.47629659  1
  O  O4  1  0.79446454  0.80681793  0.94274472  1
  O  O5  1  0.63806944  0.91735352  0.41107126  1
  O  O6  1  0.36193056  0.08264648  0.58892874  1
  O  O7  1  0.86193056  0.41735352  0.91107126  1
  O  O8  1  0.29446454  0.69318207  0.55725528  1
  O  O9  1  0.20553546  0.19318207  0.05725528  1
  O  O10  1  0.70553546  0.30681793  0.44274472  1
  O  O11  1  0.13806944  0.58264648  0.08892874  1
  K  K12  1  0.65635574  0.14133805  0.11370526  1
  K  K13  1  0.15635574  0.35866195  0.38629474  1
  K  K14  1  0.34364426  0.85866195  0.88629474  1
  K  K15  1  0.84364426  0.64133805  0.61370526  1
  K  K16  1  0.56151786  0.59909255  0.24381134  1
  K  K17  1  0.06151786  0.90090745  0.25618866  1
  K  K18  1  0.43848214  0.40090745  0.75618866  1
  K  K19  1  0.93848214  0.09909255  0.74381134  1
