# generated using pymatgen
data_Ni12P5
_symmetry_space_group_name_H-M   'P 1'
_cell_length_a   5.02922449
_cell_length_b   6.59710529
_cell_length_c   6.59710528
_cell_angle_alpha   81.64593972
_cell_angle_beta   67.59388982
_cell_angle_gamma   67.59388985
_symmetry_Int_Tables_number   1
_chemical_formula_structural   Ni12P5
_chemical_formula_sum   'Ni12 P5'
_cell_volume   187.07973528
_cell_formula_units_Z   1
loop_
 _symmetry_equiv_pos_site_id
 _symmetry_equiv_pos_as_xyz
  1  'x, y, z'
loop_
 _atom_site_type_symbol
 _atom_site_label
 _atom_site_symmetry_multiplicity
 _atom_site_fract_x
 _atom_site_fract_y
 _atom_site_fract_z
 _atom_site_occupancy
  Ni  Ni0  1  0.57069914  0.29821970  0.06331615  1
  Ni  Ni1  1  0.93223499  0.70178030  0.93668385  1
  Ni  Ni2  1  0.86891884  0.06331615  0.70178030  1
  Ni  Ni3  1  0.63401529  0.93668385  0.29821970  1
  Ni  Ni4  1  0.42930086  0.70178030  0.93668385  1
  Ni  Ni5  1  0.06776501  0.29821970  0.06331615  1
  Ni  Ni6  1  0.13108116  0.93668385  0.29821970  1
  Ni  Ni7  1  0.36598471  0.06331615  0.70178030  1
  Ni  Ni8  1  0.93967108  0.42630398  0.69435386  1
  Ni  Ni9  1  0.06032892  0.57369602  0.30564614  1
  Ni  Ni10  1  0.36597506  0.69435386  0.57369602  1
  Ni  Ni11  1  0.63402494  0.30564614  0.42630398  1
  P  P12  1  0.58693821  0.60737670  0.21874688  1
  P  P13  1  0.41306179  0.39262330  0.78125312  1
  P  P14  1  0.19431491  0.21874688  0.39262330  1
  P  P15  1  0.80568509  0.78125312  0.60737670  1
  P  P16  1  -0.00000000  -0.00000000  0.00000000  1
