# generated using pymatgen
data_AsClF8
_symmetry_space_group_name_H-M   'P 1'
_cell_length_a   5.75131492
_cell_length_b   5.75131492
_cell_length_c   10.76970726
_cell_angle_alpha   72.19761465
_cell_angle_beta   72.19761462
_cell_angle_gamma   86.81237271
_symmetry_Int_Tables_number   1
_chemical_formula_structural   AsClF8
_chemical_formula_sum   'As2 Cl2 F16'
_cell_volume   322.65565888
_cell_formula_units_Z   2
loop_
 _symmetry_equiv_pos_site_id
 _symmetry_equiv_pos_as_xyz
  1  'x, y, z'
loop_
 _atom_site_type_symbol
 _atom_site_label
 _atom_site_symmetry_multiplicity
 _atom_site_fract_x
 _atom_site_fract_y
 _atom_site_fract_z
 _atom_site_occupancy
  F  F0  1  0.12843765  0.07113904  0.33277349  1
  F  F1  1  0.42886096  0.37156235  0.16722651  1
  F  F2  1  0.87156235  0.92886096  0.66722651  1
  F  F3  1  0.57113904  0.62843765  0.83277349  1
  F  F4  1  0.76417366  0.79354875  0.02499360  1
  F  F5  1  0.70645125  0.73582634  0.47500640  1
  F  F6  1  0.23582634  0.20645125  0.97500640  1
  F  F7  1  0.29354875  0.26417366  0.52499360  1
  F  F8  1  0.18404388  0.90319555  0.85345730  1
  F  F9  1  0.59680445  0.31595612  0.64654270  1
  F  F10  1  0.81595612  0.09680445  0.14654270  1
  F  F11  1  0.40319555  0.68404388  0.35345730  1
  F  F12  1  0.87615048  0.22543335  0.89001004  1
  F  F13  1  0.27456665  0.62384952  0.60998996  1
  F  F14  1  0.12384952  0.77456665  0.10998996  1
  F  F15  1  0.72543335  0.37615048  0.39001004  1
  Cl  Cl16  1  0.58407435  0.91592565  0.75000000  1
  Cl  Cl17  1  0.41592565  0.08407435  0.25000000  1
  As  As18  1  0.00000000  0.00000000  0.00000000  1
  As  As19  1  0.50000000  0.50000000  0.50000000  1
