# generated using pymatgen
data_AlICl6
_symmetry_space_group_name_H-M   'P 1'
_cell_length_a   6.35432717
_cell_length_b   7.43599929
_cell_length_c   11.86251825
_cell_angle_alpha   90.00000000
_cell_angle_beta   90.00000000
_cell_angle_gamma   98.49745402
_symmetry_Int_Tables_number   1
_chemical_formula_structural   AlICl6
_chemical_formula_sum   'Al2 I2 Cl12'
_cell_volume   554.36007649
_cell_formula_units_Z   2
loop_
 _symmetry_equiv_pos_site_id
 _symmetry_equiv_pos_as_xyz
  1  'x, y, z'
loop_
 _atom_site_type_symbol
 _atom_site_label
 _atom_site_symmetry_multiplicity
 _atom_site_fract_x
 _atom_site_fract_y
 _atom_site_fract_z
 _atom_site_occupancy
  Al  Al0  1  0.58797403  0.51056673  0.09174972  1
  Al  Al1  1  0.41202597  0.48943327  0.59174972  1
  Cl  Cl2  1  0.29158513  0.54818715  0.76145072  1
  Cl  Cl3  1  0.70841487  0.45181285  0.26145072  1
  Cl  Cl4  1  0.26585766  0.00945076  0.21107570  1
  Cl  Cl5  1  0.73414234  0.99054924  0.71107570  1
  Cl  Cl6  1  0.79183791  0.99979446  0.36320555  1
  Cl  Cl7  1  0.20816209  0.00020554  0.86320555  1
  Cl  Cl8  1  0.68186327  0.78969310  0.05356194  1
  Cl  Cl9  1  0.31813673  0.21030690  0.55356194  1
  Cl  Cl10  1  0.23590695  0.47608149  0.10403324  1
  Cl  Cl11  1  0.76409305  0.52391851  0.60403324  1
  Cl  Cl12  1  0.31896156  0.67627469  0.47361552  1
  Cl  Cl13  1  0.68103844  0.32372531  0.97361552  1
  I  I14  1  0.99309564  0.79898732  0.74230761  1
  I  I15  1  0.00690436  0.20101268  0.24230761  1
