# generated using pymatgen
data_Li9Ge4
_symmetry_space_group_name_H-M   'P 1'
_cell_length_a   4.44303529
_cell_length_b   4.47394115
_cell_length_c   23.74006825
_cell_angle_alpha   90.00000000
_cell_angle_beta   90.00000000
_cell_angle_gamma   119.77174797
_symmetry_Int_Tables_number   1
_chemical_formula_structural   Li9Ge4
_chemical_formula_sum   'Li18 Ge8'
_cell_volume   409.61600920
_cell_formula_units_Z   2
loop_
 _symmetry_equiv_pos_site_id
 _symmetry_equiv_pos_as_xyz
  1  'x, y, z'
loop_
 _atom_site_type_symbol
 _atom_site_label
 _atom_site_symmetry_multiplicity
 _atom_site_fract_x
 _atom_site_fract_y
 _atom_site_fract_z
 _atom_site_occupancy
  Li  Li0  1  0.15339455  0.30678909  0.25000000  1
  Li  Li1  1  0.84660545  0.69321091  0.75000000  1
  Li  Li2  1  0.83680203  0.67360406  0.51710790  1
  Li  Li3  1  0.16319797  0.32639594  0.48289210  1
  Li  Li4  1  0.16319797  0.32639594  0.01710790  1
  Li  Li5  1  0.83680203  0.67360406  0.98289210  1
  Li  Li6  1  0.84758232  0.69516464  0.63186170  1
  Li  Li7  1  0.15241768  0.30483536  0.36813830  1
  Li  Li8  1  0.17723581  0.35447162  0.59298428  1
  Li  Li9  1  0.82276419  0.64552838  0.40701572  1
  Li  Li10  1  0.82276419  0.64552838  0.09298428  1
  Li  Li11  1  0.17723581  0.35447162  0.90701572  1
  Li  Li12  1  0.51257766  0.02515532  0.82340174  1
  Li  Li13  1  0.48742234  0.97484468  0.17659826  1
  Li  Li14  1  0.48742234  0.97484468  0.32340174  1
  Li  Li15  1  0.51257766  0.02515532  0.67659826  1
  Li  Li16  1  0.84758232  0.69516464  0.86813830  1
  Li  Li17  1  0.15241768  0.30483536  0.13186170  1
  Ge  Ge18  1  0.50607905  0.01215810  0.55447156  1
  Ge  Ge19  1  0.49392095  0.98784190  0.44552844  1
  Ge  Ge20  1  0.49392095  0.98784190  0.05447156  1
  Ge  Ge21  1  0.50607905  0.01215810  0.94552844  1
  Ge  Ge22  1  0.17946574  0.35893147  0.69919510  1
  Ge  Ge23  1  0.82053426  0.64106853  0.30080490  1
  Ge  Ge24  1  0.82053426  0.64106853  0.19919510  1
  Ge  Ge25  1  0.17946574  0.35893147  0.80080490  1
