# generated using pymatgen
data_Li7Fe4NiO12
_symmetry_space_group_name_H-M   'P 1'
_cell_length_a   4.98027892
_cell_length_b   5.64738774
_cell_length_c   7.55951596
_cell_angle_alpha   79.74203999
_cell_angle_beta   89.86961599
_cell_angle_gamma   89.80326609
_symmetry_Int_Tables_number   1
_chemical_formula_structural   Li7Fe4NiO12
_chemical_formula_sum   'Li7 Fe4 Ni1 O12'
_cell_volume   209.21567708
_cell_formula_units_Z   1
loop_
 _symmetry_equiv_pos_site_id
 _symmetry_equiv_pos_as_xyz
  1  'x, y, z'
loop_
 _atom_site_type_symbol
 _atom_site_label
 _atom_site_symmetry_multiplicity
 _atom_site_fract_x
 _atom_site_fract_y
 _atom_site_fract_z
 _atom_site_occupancy
  Li  Li0  1  0.50010094  0.88168032  0.69367765  1
  Li  Li1  1  0.49946411  0.88583970  0.18861265  1
  Li  Li2  1  0.99525458  0.69959564  0.85142953  1
  Li  Li3  1  0.00243781  0.68708394  0.33794664  1
  Li  Li4  1  0.99906775  0.38324491  0.18819400  1
  Li  Li5  1  0.49728670  0.18566247  0.85027422  1
  Li  Li6  1  0.50550431  0.18863514  0.34309028  1
  Fe  Fe7  1  0.00473874  0.02601708  0.51151674  1
  Fe  Fe8  1  0.49530766  0.53709869  0.01939304  1
  Fe  Fe9  1  0.50068325  0.53974534  0.51120091  1
  Fe  Fe10  1  0.99893653  0.03219388  0.02433354  1
  Ni  Ni11  1  0.00075623  0.37992062  0.69065440  1
  O  O12  1  0.67215284  0.84968646  0.94643769  1
  O  O13  1  0.32732766  0.85819736  0.44725705  1
  O  O14  1  0.83226814  0.70100936  0.59196868  1
  O  O15  1  0.17618793  0.71841490  0.08903542  1
  O  O16  1  0.34539744  0.53251539  0.76656652  1
  O  O17  1  0.63947324  0.53498806  0.26571532  1
  O  O18  1  0.82275725  0.35578949  0.93777022  1
  O  O19  1  0.17568267  0.35772567  0.44990934  1
  O  O20  1  0.68493080  0.21307075  0.59226833  1
  O  O21  1  0.32516046  0.22333173  0.09157237  1
  O  O22  1  0.14208163  0.04541483  0.77038622  1
  O  O23  1  0.85998432  0.03430526  0.26709425  1
