# generated using pymatgen
data_LaAuO3
_symmetry_space_group_name_H-M   'P 1'
_cell_length_a   4.06924201
_cell_length_b   5.75254482
_cell_length_c   13.26282316
_cell_angle_alpha   90.00000000
_cell_angle_beta   90.00000000
_cell_angle_gamma   90.00000000
_symmetry_Int_Tables_number   1
_chemical_formula_structural   LaAuO3
_chemical_formula_sum   'La4 Au4 O12'
_cell_volume   310.46275676
_cell_formula_units_Z   4
loop_
 _symmetry_equiv_pos_site_id
 _symmetry_equiv_pos_as_xyz
  1  'x, y, z'
loop_
 _atom_site_type_symbol
 _atom_site_label
 _atom_site_symmetry_multiplicity
 _atom_site_fract_x
 _atom_site_fract_y
 _atom_site_fract_z
 _atom_site_occupancy
  O  O0  1  0.17244895  0.50000000  0.75000000  1
  O  O1  1  0.82755105  0.00000000  0.25000000  1
  O  O2  1  0.82755105  0.50000000  0.25000000  1
  O  O3  1  0.17244895  0.00000000  0.75000000  1
  O  O4  1  0.74379705  0.49607876  0.92186236  1
  O  O5  1  0.74379705  0.50392124  0.57813764  1
  O  O6  1  0.25620295  0.99607876  0.07813764  1
  O  O7  1  0.25620295  0.00392124  0.42186236  1
  O  O8  1  0.74379705  0.99607876  0.57813764  1
  O  O9  1  0.74379705  0.00392124  0.92186236  1
  O  O10  1  0.25620295  0.49607876  0.42186236  1
  O  O11  1  0.25620295  0.50392124  0.07813764  1
  La  La12  1  0.26448985  0.75000000  0.91943578  1
  La  La13  1  0.26448985  0.25000000  0.58056422  1
  La  La14  1  0.73551015  0.25000000  0.08056422  1
  La  La15  1  0.73551015  0.75000000  0.41943578  1
  Au  Au16  1  0.07285162  0.75000000  0.17028172  1
  Au  Au17  1  0.07285162  0.25000000  0.32971828  1
  Au  Au18  1  0.92714838  0.25000000  0.82971828  1
  Au  Au19  1  0.92714838  0.75000000  0.67028172  1
