# generated using pymatgen
data_Sr5Zr3F22
_symmetry_space_group_name_H-M   'P 1'
_cell_length_a   7.74544809
_cell_length_b   10.46245336
_cell_length_c   10.47596054
_cell_angle_alpha   90.00000000
_cell_angle_beta   90.00000000
_cell_angle_gamma   90.00000000
_symmetry_Int_Tables_number   1
_chemical_formula_structural   Sr5Zr3F22
_chemical_formula_sum   'Sr10 Zr6 F44'
_cell_volume   848.93401759
_cell_formula_units_Z   2
loop_
 _symmetry_equiv_pos_site_id
 _symmetry_equiv_pos_as_xyz
  1  'x, y, z'
loop_
 _atom_site_type_symbol
 _atom_site_label
 _atom_site_symmetry_multiplicity
 _atom_site_fract_x
 _atom_site_fract_y
 _atom_site_fract_z
 _atom_site_occupancy
  F  F0  1  0.71386323  0.52863454  0.10598498  1
  F  F1  1  0.21386323  0.47136546  0.39401502  1
  F  F2  1  0.28613677  0.52863454  0.89401502  1
  F  F3  1  0.78613677  0.47136546  0.60598498  1
  F  F4  1  0.73637945  0.88571963  0.38807740  1
  F  F5  1  0.23637945  0.11428037  0.11192260  1
  F  F6  1  0.26362055  0.88571963  0.61192260  1
  F  F7  1  0.76362055  0.11428037  0.88807740  1
  F  F8  1  0.71263987  0.39972763  0.89187775  1
  F  F9  1  0.21263987  0.60027237  0.60812225  1
  F  F10  1  0.28736013  0.39972763  0.10812225  1
  F  F11  1  0.78736013  0.60027237  0.39187775  1
  F  F12  1  0.91189355  0.37107355  0.38926147  1
  F  F13  1  0.41189355  0.62892645  0.11073853  1
  F  F14  1  0.56802993  0.36489488  0.34915060  1
  F  F15  1  0.08810645  0.37107355  0.61073853  1
  F  F16  1  0.74039018  0.92235869  0.65358115  1
  F  F17  1  0.24039018  0.07764131  0.84641885  1
  F  F18  1  0.25960982  0.92235869  0.34641885  1
  F  F19  1  0.75960982  0.07764131  0.15358115  1
  F  F20  1  0.98845488  0.87398210  0.79966641  1
  F  F21  1  0.48845488  0.12601790  0.70033359  1
  F  F22  1  0.01154512  0.87398210  0.20033359  1
  F  F23  1  0.51154512  0.12601790  0.29966641  1
  F  F24  1  0.52682362  0.87475133  0.84275575  1
  F  F25  1  0.02682362  0.12524867  0.65724425  1
  F  F26  1  0.47317638  0.87475133  0.15724425  1
  F  F27  1  0.97317638  0.12524867  0.34275575  1
  F  F28  1  0.78204866  0.83134503  0.98387635  1
  F  F29  1  0.28204866  0.16865497  0.51612365  1
  F  F30  1  0.21795134  0.83134503  0.01612365  1
  F  F31  1  0.71795134  0.16865497  0.48387635  1
  F  F32  1  0.56433321  0.70463700  0.65892766  1
  F  F33  1  0.06433321  0.29536300  0.84107234  1
  F  F34  1  0.43566679  0.70463700  0.34107234  1
  F  F35  1  0.93566679  0.29536300  0.15892766  1
  F  F36  1  0.91024776  0.70473524  0.61134928  1
  F  F37  1  0.41024776  0.29526476  0.88865072  1
  F  F38  1  0.08975224  0.70473524  0.38865072  1
  F  F39  1  0.58975224  0.29526476  0.11134928  1
  F  F40  1  0.93197007  0.63510512  0.84915060  1
  F  F41  1  0.43197007  0.36489488  0.65084940  1
  F  F42  1  0.06802993  0.63510512  0.15084940  1
  F  F43  1  0.58810645  0.62892645  0.88926147  1
  Sr  Sr44  1  0.26367777  0.74680969  0.79261369  1
  Sr  Sr45  1  0.76367777  0.25319031  0.70738631  1
  Sr  Sr46  1  0.73632223  0.74680969  0.20738631  1
  Sr  Sr47  1  0.23632223  0.25319031  0.29261369  1
  Sr  Sr48  1  0.00000000  0.01985008  0.00000000  1
  Sr  Sr49  1  0.50000000  0.98014992  0.50000000  1
  Sr  Sr50  1  0.50000000  0.06290830  0.00000000  1
  Sr  Sr51  1  0.00000000  0.93709170  0.50000000  1
  Sr  Sr52  1  0.50000000  0.53839404  0.50000000  1
  Sr  Sr53  1  0.00000000  0.46160596  0.00000000  1
  Zr  Zr54  1  0.75269879  0.77331472  0.78904368  1
  Zr  Zr55  1  0.25269879  0.22668528  0.71095632  1
  Zr  Zr56  1  0.24730121  0.77331472  0.21095632  1
  Zr  Zr57  1  0.74730121  0.22668528  0.28904368  1
  Zr  Zr58  1  0.00000000  0.53797944  0.50000000  1
  Zr  Zr59  1  0.50000000  0.46202056  0.00000000  1
