# generated using pymatgen
data_Ba2GdCl7
_symmetry_space_group_name_H-M   'P 1'
_cell_length_a   6.95889814
_cell_length_b   10.69881846
_cell_length_c   15.76147239
_cell_angle_alpha   90.00000000
_cell_angle_beta   90.00000000
_cell_angle_gamma   90.76492135
_symmetry_Int_Tables_number   1
_chemical_formula_structural   Ba2GdCl7
_chemical_formula_sum   'Ba8 Gd4 Cl28'
_cell_volume   1173.36837793
_cell_formula_units_Z   4
loop_
 _symmetry_equiv_pos_site_id
 _symmetry_equiv_pos_as_xyz
  1  'x, y, z'
loop_
 _atom_site_type_symbol
 _atom_site_label
 _atom_site_symmetry_multiplicity
 _atom_site_fract_x
 _atom_site_fract_y
 _atom_site_fract_z
 _atom_site_occupancy
  Cl  Cl0  1  0.70958154  0.53070519  0.14090221  1
  Cl  Cl1  1  0.29041846  0.96929481  0.64090221  1
  Cl  Cl2  1  0.29041846  0.46929481  0.85909779  1
  Cl  Cl3  1  0.70958154  0.03070519  0.35909779  1
  Cl  Cl4  1  0.13121588  0.37607601  0.07108727  1
  Cl  Cl5  1  0.86878412  0.12392399  0.57108727  1
  Cl  Cl6  1  0.86878412  0.62392399  0.92891273  1
  Cl  Cl7  1  0.13121588  0.87607601  0.42891273  1
  Cl  Cl8  1  0.69931676  0.29012385  0.95951963  1
  Cl  Cl9  1  0.30068324  0.20987615  0.45951963  1
  Cl  Cl10  1  0.30068324  0.70987615  0.04048037  1
  Cl  Cl11  1  0.69931676  0.79012385  0.54048037  1
  Cl  Cl12  1  0.00077511  0.57105642  0.39606692  1
  Cl  Cl13  1  0.99922489  0.92894358  0.89606692  1
  Cl  Cl14  1  0.99922489  0.42894358  0.60393308  1
  Cl  Cl15  1  0.00077511  0.07105642  0.10393308  1
  Cl  Cl16  1  0.51052334  0.80300687  0.24194132  1
  Cl  Cl17  1  0.48947666  0.69699313  0.74194132  1
  Cl  Cl18  1  0.48947666  0.19699313  0.75805868  1
  Cl  Cl19  1  0.51052334  0.30300687  0.25805868  1
  Cl  Cl20  1  0.00096268  0.79516508  0.22607888  1
  Cl  Cl21  1  0.99903732  0.70483492  0.72607888  1
  Cl  Cl22  1  0.99903732  0.20483492  0.77392112  1
  Cl  Cl23  1  0.00096268  0.29516508  0.27392112  1
  Cl  Cl24  1  0.51248415  0.58498716  0.39522042  1
  Cl  Cl25  1  0.48751585  0.91501284  0.89522042  1
  Cl  Cl26  1  0.48751585  0.41501284  0.60477958  1
  Cl  Cl27  1  0.51248415  0.08498716  0.10477958  1
  Ba  Ba28  1  0.73253199  0.82441199  0.06072820  1
  Ba  Ba29  1  0.26746801  0.67558801  0.56072820  1
  Ba  Ba30  1  0.26746801  0.17558801  0.93927180  1
  Ba  Ba31  1  0.73253199  0.32441199  0.43927180  1
  Ba  Ba32  1  0.26776752  0.04991398  0.27936675  1
  Ba  Ba33  1  0.73223248  0.45008602  0.77936675  1
  Ba  Ba34  1  0.73223248  0.95008602  0.72063325  1
  Ba  Ba35  1  0.26776752  0.54991398  0.22063325  1
  Gd  Gd36  1  0.78324442  0.28300278  0.12727127  1
  Gd  Gd37  1  0.21675558  0.21699722  0.62727127  1
  Gd  Gd38  1  0.21675558  0.71699722  0.87272873  1
  Gd  Gd39  1  0.78324442  0.78300278  0.37272873  1
