# generated using pymatgen
data_LiGa5O8
_symmetry_space_group_name_H-M   'P 1'
_cell_length_a   8.32254202
_cell_length_b   8.32254202
_cell_length_c   8.32254202
_cell_angle_alpha   90.00000000
_cell_angle_beta   90.00000000
_cell_angle_gamma   90.00000000
_symmetry_Int_Tables_number   1
_chemical_formula_structural   LiGa5O8
_chemical_formula_sum   'Li4 Ga20 O32'
_cell_volume   576.45842348
_cell_formula_units_Z   4
loop_
 _symmetry_equiv_pos_site_id
 _symmetry_equiv_pos_as_xyz
  1  'x, y, z'
loop_
 _atom_site_type_symbol
 _atom_site_label
 _atom_site_symmetry_multiplicity
 _atom_site_fract_x
 _atom_site_fract_y
 _atom_site_fract_z
 _atom_site_occupancy
  Li  Li0  1  0.62500000  0.62500000  0.62500000  1
  Li  Li1  1  0.37500000  0.12500000  0.87500000  1
  Li  Li2  1  0.87500000  0.37500000  0.12500000  1
  Li  Li3  1  0.12500000  0.87500000  0.37500000  1
  O  O4  1  0.87272774  0.88421858  0.38167973  1
  O  O5  1  0.13167973  0.86578142  0.12272774  1
  O  O6  1  0.63167973  0.63421858  0.87727226  1
  O  O7  1  0.86578142  0.12272774  0.13167973  1
  O  O8  1  0.13421858  0.62272774  0.36832027  1
  O  O9  1  0.12272774  0.13167973  0.86578142  1
  O  O10  1  0.37727226  0.86832027  0.36578142  1
  O  O11  1  0.38167973  0.87272774  0.88421858  1
  O  O12  1  0.88167973  0.62727226  0.11578142  1
  O  O13  1  0.61832027  0.37272774  0.61578142  1
  O  O14  1  0.62727226  0.11578142  0.88167973  1
  O  O15  1  0.61578142  0.61832027  0.37272774  1
  O  O16  1  0.11578142  0.88167973  0.62727226  1
  O  O17  1  0.11333042  0.61333042  0.88666958  1
  O  O18  1  0.88421858  0.38167973  0.87272774  1
  O  O19  1  0.37272774  0.61578142  0.61832027  1
  O  O20  1  0.12727226  0.38421858  0.11832027  1
  O  O21  1  0.38421858  0.11832027  0.12727226  1
  O  O22  1  0.87727226  0.63167973  0.63421858  1
  O  O23  1  0.62272774  0.36832027  0.13421858  1
  O  O24  1  0.38666958  0.38666958  0.38666958  1
  O  O25  1  0.13666958  0.36333042  0.63666958  1
  O  O26  1  0.63666958  0.13666958  0.36333042  1
  O  O27  1  0.36333042  0.63666958  0.13666958  1
  O  O28  1  0.61333042  0.88666958  0.11333042  1
  O  O29  1  0.88666958  0.11333042  0.61333042  1
  O  O30  1  0.63421858  0.87727226  0.63167973  1
  O  O31  1  0.86333042  0.86333042  0.86333042  1
  O  O32  1  0.11832027  0.12727226  0.38421858  1
  O  O33  1  0.86832027  0.36578142  0.37727226  1
  O  O34  1  0.36832027  0.13421858  0.62272774  1
  O  O35  1  0.36578142  0.37727226  0.86832027  1
  Ga  Ga36  1  0.12500000  0.36594778  0.88405222  1
  Ga  Ga37  1  0.25319835  0.25319835  0.25319835  1
  Ga  Ga38  1  0.00319835  0.49680165  0.50319835  1
  Ga  Ga39  1  0.49680165  0.50319835  0.00319835  1
  Ga  Ga40  1  0.50319835  0.00319835  0.49680165  1
  Ga  Ga41  1  0.75319835  0.24680165  0.74680165  1
  Ga  Ga42  1  0.24680165  0.74680165  0.75319835  1
  Ga  Ga43  1  0.74680165  0.75319835  0.24680165  1
  Ga  Ga44  1  0.99680165  0.99680165  0.99680165  1
  Ga  Ga45  1  0.62500000  0.13405222  0.11594778  1
  Ga  Ga46  1  0.61594778  0.87500000  0.86594778  1
  Ga  Ga47  1  0.63405222  0.38405222  0.37500000  1
  Ga  Ga48  1  0.36594778  0.88405222  0.12500000  1
  Ga  Ga49  1  0.88405222  0.12500000  0.36594778  1
  Ga  Ga50  1  0.11594778  0.62500000  0.13405222  1
  Ga  Ga51  1  0.38405222  0.37500000  0.63405222  1
  Ga  Ga52  1  0.86594778  0.61594778  0.87500000  1
  Ga  Ga53  1  0.13405222  0.11594778  0.62500000  1
  Ga  Ga54  1  0.37500000  0.63405222  0.38405222  1
  Ga  Ga55  1  0.87500000  0.86594778  0.61594778  1
