# generated using pymatgen
data_NaErCl4
_symmetry_space_group_name_H-M   'P 1'
_cell_length_a   6.44508273
_cell_length_b   6.80348402
_cell_length_c   7.72605864
_cell_angle_alpha   90.00000000
_cell_angle_beta   90.00000000
_cell_angle_gamma   92.74184934
_symmetry_Int_Tables_number   1
_chemical_formula_structural   NaErCl4
_chemical_formula_sum   'Na2 Er2 Cl8'
_cell_volume   338.39224424
_cell_formula_units_Z   2
loop_
 _symmetry_equiv_pos_site_id
 _symmetry_equiv_pos_as_xyz
  1  'x, y, z'
loop_
 _atom_site_type_symbol
 _atom_site_label
 _atom_site_symmetry_multiplicity
 _atom_site_fract_x
 _atom_site_fract_y
 _atom_site_fract_z
 _atom_site_occupancy
  Na  Na0  1  0.50000000  0.25000000  0.35342618  1
  Na  Na1  1  0.50000000  0.75000000  0.64657382  1
  Cl  Cl2  1  0.25264000  0.40466900  0.62543717  1
  Cl  Cl3  1  0.74736000  0.09533100  0.62543717  1
  Cl  Cl4  1  0.77840143  0.06431448  0.10346024  1
  Cl  Cl5  1  0.22159857  0.43568552  0.10346024  1
  Cl  Cl6  1  0.22159857  0.93568552  0.89653976  1
  Cl  Cl7  1  0.77840143  0.56431448  0.89653976  1
  Cl  Cl8  1  0.25264000  0.90466900  0.37456283  1
  Cl  Cl9  1  0.74736000  0.59533100  0.37456283  1
  Er  Er10  1  0.00000000  0.25000000  0.84465301  1
  Er  Er11  1  0.00000000  0.75000000  0.15534699  1
