# generated using pymatgen
data_Ba3(GeN)2
_symmetry_space_group_name_H-M   'P 1'
_cell_length_a   4.10656791
_cell_length_b   9.72566641
_cell_length_c   10.23605915
_cell_angle_alpha   113.65574717
_cell_angle_beta   90.00000000
_cell_angle_gamma   90.00000000
_symmetry_Int_Tables_number   1
_chemical_formula_structural   Ba3(GeN)2
_chemical_formula_sum   'Ba6 Ge4 N4'
_cell_volume   374.46715162
_cell_formula_units_Z   2
loop_
 _symmetry_equiv_pos_site_id
 _symmetry_equiv_pos_as_xyz
  1  'x, y, z'
loop_
 _atom_site_type_symbol
 _atom_site_label
 _atom_site_symmetry_multiplicity
 _atom_site_fract_x
 _atom_site_fract_y
 _atom_site_fract_z
 _atom_site_occupancy
  N  N0  1  0.75000000  0.81799310  1.00079121  1
  N  N1  1  0.25000000  0.18200690  -0.00079121  1
  N  N2  1  0.75000000  0.92898579  0.32396721  1
  N  N3  1  0.25000000  0.07101421  0.67603279  1
  Ge  Ge4  1  0.25000000  0.24720820  0.84731125  1
  Ge  Ge5  1  0.25000000  0.42112011  0.44494526  1
  Ge  Ge6  1  0.75000000  0.75279180  0.15268875  1
  Ge  Ge7  1  0.75000000  0.57887989  0.55505474  1
  Ba  Ba8  1  0.75000000  0.97280491  0.82676864  1
  Ba  Ba9  1  0.25000000  0.02719509  0.17323136  1
  Ba  Ba10  1  0.75000000  0.38580043  0.14358135  1
  Ba  Ba11  1  0.25000000  0.61419957  0.85641865  1
  Ba  Ba12  1  0.75000000  0.18734117  0.55906613  1
  Ba  Ba13  1  0.25000000  0.81265883  0.44093387  1
