# generated using pymatgen
data_H4SO5
_symmetry_space_group_name_H-M   'P 1'
_cell_length_a   7.06954516
_cell_length_b   7.47829415
_cell_length_c   8.19670517
_cell_angle_alpha   107.90330327
_cell_angle_beta   90.00000000
_cell_angle_gamma   90.00000000
_symmetry_Int_Tables_number   1
_chemical_formula_structural   H4SO5
_chemical_formula_sum   'H16 S4 O20'
_cell_volume   412.36056140
_cell_formula_units_Z   4
loop_
 _symmetry_equiv_pos_site_id
 _symmetry_equiv_pos_as_xyz
  1  'x, y, z'
loop_
 _atom_site_type_symbol
 _atom_site_label
 _atom_site_symmetry_multiplicity
 _atom_site_fract_x
 _atom_site_fract_y
 _atom_site_fract_z
 _atom_site_occupancy
  H  H0  1  0.33683367  0.23489466  0.29493531  1
  H  H1  1  0.83683367  0.76510534  0.20506469  1
  H  H2  1  0.66316633  0.76510534  0.70506469  1
  H  H3  1  0.16316633  0.23489466  0.79493531  1
  H  H4  1  0.87744960  0.71979101  0.77729806  1
  H  H5  1  0.37744960  0.28020899  0.72270194  1
  H  H6  1  0.20356766  0.41425433  0.41250004  1
  H  H7  1  0.70356766  0.58574567  0.08749996  1
  H  H8  1  0.79643234  0.58574567  0.58749996  1
  H  H9  1  0.29643234  0.41425433  0.91250004  1
  H  H10  1  0.81675803  0.11343151  0.60701720  1
  H  H11  1  0.31675803  0.88656849  0.89298280  1
  H  H12  1  0.18324197  0.88656849  0.39298280  1
  H  H13  1  0.68324197  0.11343151  0.10701720  1
  H  H14  1  0.12255040  0.28020899  0.22270194  1
  H  H15  1  0.62255040  0.71979101  0.27729806  1
  O  O16  1  0.50908842  0.33140930  0.59176729  1
  O  O17  1  0.75417336  0.07558273  0.99349223  1
  O  O18  1  0.24582664  0.92441727  0.00650777  1
  O  O19  1  0.74582664  0.07558273  0.49349223  1
  O  O20  1  0.29706547  0.27958902  0.82591391  1
  O  O21  1  0.79706547  0.72041098  0.67408609  1
  O  O22  1  0.70293453  0.72041098  0.17408609  1
  O  O23  1  0.20293453  0.27958902  0.32591391  1
  O  O24  1  0.49091158  0.66859070  0.40823271  1
  O  O25  1  0.99091158  0.33140930  0.09176729  1
  O  O26  1  0.80532284  0.38816204  0.46463910  1
  O  O27  1  0.30532284  0.61183796  0.03536090  1
  O  O28  1  0.19467716  0.61183796  0.53536090  1
  O  O29  1  0.69467716  0.38816204  0.96463910  1
  O  O30  1  0.56667908  0.17537901  0.28879295  1
  O  O31  1  0.06667908  0.82462099  0.21120705  1
  O  O32  1  0.43332092  0.82462099  0.71120705  1
  O  O33  1  0.93332092  0.17537901  0.78879295  1
  O  O34  1  0.25417336  0.92441727  0.50650777  1
  O  O35  1  0.00908842  0.66859070  0.90823271  1
  S  S36  1  0.65311939  0.25354106  0.46119207  1
  S  S37  1  0.15311939  0.74645894  0.03880793  1
  S  S38  1  0.34688061  0.74645894  0.53880793  1
  S  S39  1  0.84688061  0.25354106  0.96119207  1
