# generated using pymatgen
data_Hg3TeBr4
_symmetry_space_group_name_H-M   'P 1'
_cell_length_a   13.03067403
_cell_length_b   13.25382620
_cell_length_c   13.38468700
_cell_angle_alpha   90.00000000
_cell_angle_beta   90.00000000
_cell_angle_gamma   90.00000000
_symmetry_Int_Tables_number   1
_chemical_formula_structural   Hg3TeBr4
_chemical_formula_sum   'Hg24 Te8 Br32'
_cell_volume   2311.61961936
_cell_formula_units_Z   8
loop_
 _symmetry_equiv_pos_site_id
 _symmetry_equiv_pos_as_xyz
  1  'x, y, z'
loop_
 _atom_site_type_symbol
 _atom_site_label
 _atom_site_symmetry_multiplicity
 _atom_site_fract_x
 _atom_site_fract_y
 _atom_site_fract_z
 _atom_site_occupancy
  Br  Br0  1  0.33186598  0.09814546  0.22860228  1
  Br  Br1  1  0.83186598  0.40185454  0.77139772  1
  Br  Br2  1  0.66813402  0.59814546  0.27139772  1
  Br  Br3  1  0.16813402  0.90185454  0.72860228  1
  Br  Br4  1  0.66813402  0.90185454  0.77139772  1
  Br  Br5  1  0.16813402  0.59814546  0.22860228  1
  Br  Br6  1  0.33186598  0.40185454  0.72860228  1
  Br  Br7  1  0.83186598  0.09814546  0.27139772  1
  Br  Br8  1  0.05791387  0.08494094  0.10020832  1
  Br  Br9  1  0.55791387  0.41505906  0.89979168  1
  Br  Br10  1  0.94208613  0.58494094  0.39979168  1
  Br  Br11  1  0.44208613  0.91505906  0.60020832  1
  Br  Br12  1  0.94208613  0.91505906  0.89979168  1
  Br  Br13  1  0.44208613  0.58494094  0.10020832  1
  Br  Br14  1  0.05791387  0.41505906  0.60020832  1
  Br  Br15  1  0.59556521  0.21652223  0.67631498  1
  Br  Br16  1  0.76191682  0.16502560  0.94829854  1
  Br  Br17  1  0.26191682  0.33497440  0.05170146  1
  Br  Br18  1  0.23808318  0.66502560  0.55170146  1
  Br  Br19  1  0.73808318  0.83497440  0.44829854  1
  Br  Br20  1  0.23808318  0.83497440  0.05170146  1
  Br  Br21  1  0.73808318  0.66502560  0.94829854  1
  Br  Br22  1  0.76191682  0.33497440  0.44829854  1
  Br  Br23  1  0.26191682  0.16502560  0.55170146  1
  Br  Br24  1  0.09556521  0.21652223  0.82368502  1
  Br  Br25  1  0.59556521  0.28347777  0.17631498  1
  Br  Br26  1  0.90443479  0.71652223  0.67631498  1
  Br  Br27  1  0.40443479  0.78347777  0.32368502  1
  Br  Br28  1  0.90443479  0.78347777  0.17631498  1
  Br  Br29  1  0.40443479  0.71652223  0.82368502  1
  Br  Br30  1  0.09556521  0.28347777  0.32368502  1
  Br  Br31  1  0.55791387  0.08494094  0.39979168  1
  Te  Te32  1  0.40270465  0.09607585  0.89740077  1
  Te  Te33  1  0.90270465  0.40392415  0.10259923  1
  Te  Te34  1  0.59729535  0.59607585  0.60259923  1
  Te  Te35  1  0.09729535  0.90392415  0.39740077  1
  Te  Te36  1  0.59729535  0.90392415  0.10259923  1
  Te  Te37  1  0.09729535  0.59607585  0.89740077  1
  Te  Te38  1  0.40270465  0.40392415  0.39740077  1
  Te  Te39  1  0.90270465  0.09607585  0.60259923  1
  Hg  Hg40  1  0.61952473  0.08934742  0.18857597  1
  Hg  Hg41  1  0.31979766  0.30906015  0.23485013  1
  Hg  Hg42  1  0.18020234  0.69093985  0.73485013  1
  Hg  Hg43  1  0.68020234  0.80906015  0.26514987  1
  Hg  Hg44  1  0.18020234  0.80906015  0.23485013  1
  Hg  Hg45  1  0.68020234  0.69093985  0.76514987  1
  Hg  Hg46  1  0.81979766  0.30906015  0.26514987  1
  Hg  Hg47  1  0.31979766  0.19093985  0.73485013  1
  Hg  Hg48  1  0.81979766  0.19093985  0.76514987  1
  Hg  Hg49  1  0.11952473  0.41065258  0.81142403  1
  Hg  Hg50  1  0.38047527  0.58934742  0.31142403  1
  Hg  Hg51  1  0.88047527  0.91065258  0.68857597  1
  Hg  Hg52  1  0.38047527  0.91065258  0.81142403  1
  Hg  Hg53  1  0.88047527  0.58934742  0.18857597  1
  Hg  Hg54  1  0.61952473  0.41065258  0.68857597  1
  Hg  Hg55  1  0.11952473  0.08934742  0.31142403  1
  Hg  Hg56  1  0.23093923  0.09689059  0.01290065  1
  Hg  Hg57  1  0.73093923  0.40310941  0.98709935  1
  Hg  Hg58  1  0.76906077  0.59689059  0.48709935  1
  Hg  Hg59  1  0.26906077  0.90310941  0.51290065  1
  Hg  Hg60  1  0.76906077  0.90310941  0.98709935  1
  Hg  Hg61  1  0.26906077  0.59689059  0.01290065  1
  Hg  Hg62  1  0.23093923  0.40310941  0.51290065  1
  Hg  Hg63  1  0.73093923  0.09689059  0.48709935  1
