# generated using pymatgen
data_Rb4Au6S5
_symmetry_space_group_name_H-M   'P 1'
_cell_length_a   10.19699873
_cell_length_b   10.19699873
_cell_length_c   10.27826852
_cell_angle_alpha   90.00000000
_cell_angle_beta   90.00000000
_cell_angle_gamma   119.99999998
_symmetry_Int_Tables_number   1
_chemical_formula_structural   Rb4Au6S5
_chemical_formula_sum   'Rb8 Au12 S10'
_cell_volume   925.54027408
_cell_formula_units_Z   2
loop_
 _symmetry_equiv_pos_site_id
 _symmetry_equiv_pos_as_xyz
  1  'x, y, z'
loop_
 _atom_site_type_symbol
 _atom_site_label
 _atom_site_symmetry_multiplicity
 _atom_site_fract_x
 _atom_site_fract_y
 _atom_site_fract_z
 _atom_site_occupancy
  S  S0  1  0.73118761  0.95948369  0.25000000  1
  S  S1  1  0.33333333  0.66666667  0.53552692  1
  S  S2  1  0.33333333  0.66666667  0.96447308  1
  S  S3  1  0.66666667  0.33333333  0.03552692  1
  S  S4  1  0.66666667  0.33333333  0.46447308  1
  S  S5  1  0.95948369  0.73118761  0.75000000  1
  S  S6  1  0.77170392  0.04051631  0.75000000  1
  S  S7  1  0.26881239  0.22829608  0.75000000  1
  S  S8  1  0.04051631  0.77170392  0.25000000  1
  S  S9  1  0.22829608  0.26881239  0.25000000  1
  Rb  Rb10  1  0.42044090  0.07599480  0.25000000  1
  Rb  Rb11  1  0.92400520  0.34444610  0.25000000  1
  Rb  Rb12  1  0.65555390  0.57955910  0.25000000  1
  Rb  Rb13  1  0.57955910  0.65555390  0.75000000  1
  Rb  Rb14  1  0.34444610  0.92400520  0.75000000  1
  Rb  Rb15  1  0.00000000  0.00000000  0.00000000  1
  Rb  Rb16  1  0.00000000  0.00000000  0.50000000  1
  Rb  Rb17  1  0.07599480  0.42044090  0.75000000  1
  Au  Au18  1  0.82738824  0.54462730  0.59365125  1
  Au  Au19  1  0.71723907  0.17261176  0.59365125  1
  Au  Au20  1  0.45537270  0.28276093  0.59365125  1
  Au  Au21  1  0.28276093  0.45537270  0.40634875  1
  Au  Au22  1  0.71723907  0.17261176  0.90634875  1
  Au  Au23  1  0.82738824  0.54462730  0.90634875  1
  Au  Au24  1  0.17261176  0.71723907  0.09365125  1
  Au  Au25  1  0.54462730  0.82738824  0.09365125  1
  Au  Au26  1  0.54462730  0.82738824  0.40634875  1
  Au  Au27  1  0.17261176  0.71723907  0.40634875  1
  Au  Au28  1  0.28276093  0.45537270  0.09365125  1
  Au  Au29  1  0.45537270  0.28276093  0.90634875  1
