# generated using pymatgen
data_Hg3(SBr)2
_symmetry_space_group_name_H-M   'P 1'
_cell_length_a   9.53394856
_cell_length_b   10.49033831
_cell_length_c   10.61778765
_cell_angle_alpha   113.07524210
_cell_angle_beta   90.00000000
_cell_angle_gamma   117.02734474
_symmetry_Int_Tables_number   1
_chemical_formula_structural   Hg3(SBr)2
_chemical_formula_sum   'Hg12 S8 Br8'
_cell_volume   849.47167121
_cell_formula_units_Z   4
loop_
 _symmetry_equiv_pos_site_id
 _symmetry_equiv_pos_as_xyz
  1  'x, y, z'
loop_
 _atom_site_type_symbol
 _atom_site_label
 _atom_site_symmetry_multiplicity
 _atom_site_fract_x
 _atom_site_fract_y
 _atom_site_fract_z
 _atom_site_occupancy
  S  S0  1  0.32289001  0.13567538  0.74889144  1
  S  S1  1  0.18721462  0.86432462  0.25110856  1
  S  S2  1  0.67710999  0.86432462  0.25110856  1
  S  S3  1  0.81278538  0.13567538  0.74889144  1
  S  S4  1  0.44928122  0.38899311  0.25947831  1
  S  S5  1  0.06028811  0.61100689  0.74052169  1
  S  S6  1  0.55071878  0.61100689  0.74052169  1
  S  S7  1  0.93971189  0.38899311  0.25947831  1
  Br  Br8  1  0.24981405  0.49962811  0.00349718  1
  Br  Br9  1  0.75018595  0.50037189  0.99650282  1
  Br  Br10  1  0.88244922  0.76489843  0.51371427  1
  Br  Br11  1  0.11755078  0.23510157  0.48628573  1
  Br  Br12  1  0.00000000  0.00000000  0.00000000  1
  Br  Br13  1  0.50000000  0.00000000  0.00000000  1
  Br  Br14  1  0.61906419  0.23812838  0.49580627  1
  Br  Br15  1  0.38093581  0.76187162  0.50419373  1
  Hg  Hg16  1  0.33937673  0.14546844  0.29405122  1
  Hg  Hg17  1  0.19390829  0.85453156  0.70594878  1
  Hg  Hg18  1  0.66062327  0.85453156  0.70594878  1
  Hg  Hg19  1  0.80609171  0.14546844  0.29405122  1
  Hg  Hg20  1  0.39351412  0.26076130  0.00412205  1
  Hg  Hg21  1  0.13275282  0.73923870  0.99587795  1
  Hg  Hg22  1  0.60648588  0.73923870  0.99587795  1
  Hg  Hg23  1  0.86724718  0.26076130  0.00412205  1
  Hg  Hg24  1  0.78419536  0.56839072  0.71591017  1
  Hg  Hg25  1  0.21580464  0.43160928  0.28408983  1
  Hg  Hg26  1  0.92501155  0.85002310  0.27157215  1
  Hg  Hg27  1  0.07498845  0.14997690  0.72842785  1
