# generated using pymatgen
data_Co3(OF2)2
_symmetry_space_group_name_H-M   'P 1'
_cell_length_a   4.56444825
_cell_length_b   4.50781053
_cell_length_c   9.40328191
_cell_angle_alpha   90.00000000
_cell_angle_beta   88.84218244
_cell_angle_gamma   90.00000000
_symmetry_Int_Tables_number   1
_chemical_formula_structural   Co3(OF2)2
_chemical_formula_sum   'Co6 O4 F8'
_cell_volume   193.43930342
_cell_formula_units_Z   2
loop_
 _symmetry_equiv_pos_site_id
 _symmetry_equiv_pos_as_xyz
  1  'x, y, z'
loop_
 _atom_site_type_symbol
 _atom_site_label
 _atom_site_symmetry_multiplicity
 _atom_site_fract_x
 _atom_site_fract_y
 _atom_site_fract_z
 _atom_site_occupancy
  Co  Co0  1  0.96375736  0.97712801  0.00724433  1
  Co  Co1  1  0.00000000  0.00000000  0.33333300  1
  Co  Co2  1  0.03624264  0.02287199  0.65942167  1
  Co  Co3  1  0.53624264  0.47712801  0.15942167  1
  Co  Co4  1  0.50000000  0.50000000  0.83333300  1
  Co  Co5  1  0.46375736  0.52287199  0.50724433  1
  O  O6  1  0.19570063  0.82677930  0.50150002  1
  O  O7  1  0.30429937  0.32677930  0.66516698  1
  O  O8  1  0.69570063  0.67322070  0.00150002  1
  O  O9  1  0.80429937  0.17322070  0.16516698  1
  F  F10  1  0.21739145  0.77239884  0.17172869  1
  F  F11  1  0.19079202  0.80221689  0.84227434  1
  F  F12  1  0.30920798  0.30221689  0.32439266  1
  F  F13  1  0.28260855  0.27239884  0.99493731  1
  F  F14  1  0.71739145  0.72760116  0.67172869  1
  F  F15  1  0.69079202  0.69778311  0.34227434  1
  F  F16  1  0.80920798  0.19778311  0.82439266  1
  F  F17  1  0.78260855  0.22760116  0.49493731  1
