# generated using pymatgen
data_Hg3TeCl4
_symmetry_space_group_name_H-M   'P 1'
_cell_length_a   12.09256415
_cell_length_b   12.77377028
_cell_length_c   13.10447763
_cell_angle_alpha   90.00000000
_cell_angle_beta   90.00000000
_cell_angle_gamma   90.00000000
_symmetry_Int_Tables_number   1
_chemical_formula_structural   Hg3TeCl4
_chemical_formula_sum   'Hg24 Te8 Cl32'
_cell_volume   2024.21768771
_cell_formula_units_Z   8
loop_
 _symmetry_equiv_pos_site_id
 _symmetry_equiv_pos_as_xyz
  1  'x, y, z'
loop_
 _atom_site_type_symbol
 _atom_site_label
 _atom_site_symmetry_multiplicity
 _atom_site_fract_x
 _atom_site_fract_y
 _atom_site_fract_z
 _atom_site_occupancy
  Cl  Cl0  1  0.32262262  0.10493590  0.21863299  1
  Cl  Cl1  1  0.82262262  0.39506410  0.78136701  1
  Cl  Cl2  1  0.67737738  0.60493590  0.28136701  1
  Cl  Cl3  1  0.17737738  0.89506410  0.71863299  1
  Cl  Cl4  1  0.67737738  0.89506410  0.78136701  1
  Cl  Cl5  1  0.17737738  0.60493590  0.21863299  1
  Cl  Cl6  1  0.32262262  0.39506410  0.71863299  1
  Cl  Cl7  1  0.82262262  0.10493590  0.28136701  1
  Cl  Cl8  1  0.04479536  0.08049845  0.10419645  1
  Cl  Cl9  1  0.54479536  0.41950155  0.89580355  1
  Cl  Cl10  1  0.95520464  0.58049845  0.39580355  1
  Cl  Cl11  1  0.45520464  0.91950155  0.60419645  1
  Cl  Cl12  1  0.95520464  0.91950155  0.89580355  1
  Cl  Cl13  1  0.45520464  0.58049845  0.10419645  1
  Cl  Cl14  1  0.04479536  0.41950155  0.60419645  1
  Cl  Cl15  1  0.58247238  0.21777015  0.67919459  1
  Cl  Cl16  1  0.74697350  0.15807566  0.94775057  1
  Cl  Cl17  1  0.24697350  0.34192434  0.05224943  1
  Cl  Cl18  1  0.25302650  0.65807566  0.55224943  1
  Cl  Cl19  1  0.75302650  0.84192434  0.44775057  1
  Cl  Cl20  1  0.25302650  0.84192434  0.05224943  1
  Cl  Cl21  1  0.75302650  0.65807566  0.94775057  1
  Cl  Cl22  1  0.74697350  0.34192434  0.44775057  1
  Cl  Cl23  1  0.24697350  0.15807566  0.55224943  1
  Cl  Cl24  1  0.08247238  0.21777015  0.82080541  1
  Cl  Cl25  1  0.58247238  0.28222985  0.17919459  1
  Cl  Cl26  1  0.91752762  0.71777015  0.67919459  1
  Cl  Cl27  1  0.41752762  0.78222985  0.32080541  1
  Cl  Cl28  1  0.91752762  0.78222985  0.17919459  1
  Cl  Cl29  1  0.41752762  0.71777015  0.82080541  1
  Cl  Cl30  1  0.08247238  0.28222985  0.32080541  1
  Cl  Cl31  1  0.54479536  0.08049845  0.39580355  1
  Te  Te32  1  0.40198879  0.10273012  0.89867583  1
  Te  Te33  1  0.90198879  0.39726988  0.10132417  1
  Te  Te34  1  0.59801121  0.60273012  0.60132417  1
  Te  Te35  1  0.09801121  0.89726988  0.39867583  1
  Te  Te36  1  0.59801121  0.89726988  0.10132417  1
  Te  Te37  1  0.09801121  0.60273012  0.89867583  1
  Te  Te38  1  0.40198879  0.39726988  0.39867583  1
  Te  Te39  1  0.90198879  0.10273012  0.60132417  1
  Hg  Hg40  1  0.59543222  0.09137915  0.18296042  1
  Hg  Hg41  1  0.30982075  0.31459704  0.22796063  1
  Hg  Hg42  1  0.19017925  0.68540296  0.72796063  1
  Hg  Hg43  1  0.69017925  0.81459704  0.27203937  1
  Hg  Hg44  1  0.19017925  0.81459704  0.22796063  1
  Hg  Hg45  1  0.69017925  0.68540296  0.77203937  1
  Hg  Hg46  1  0.80982075  0.31459704  0.27203937  1
  Hg  Hg47  1  0.30982075  0.18540296  0.72796063  1
  Hg  Hg48  1  0.80982075  0.18540296  0.77203937  1
  Hg  Hg49  1  0.09543222  0.40862085  0.81703958  1
  Hg  Hg50  1  0.40456778  0.59137915  0.31703958  1
  Hg  Hg51  1  0.90456778  0.90862085  0.68296042  1
  Hg  Hg52  1  0.40456778  0.90862085  0.81703958  1
  Hg  Hg53  1  0.90456778  0.59137915  0.18296042  1
  Hg  Hg54  1  0.59543222  0.40862085  0.68296042  1
  Hg  Hg55  1  0.09543222  0.09137915  0.31703958  1
  Hg  Hg56  1  0.21877985  0.08099098  0.01474451  1
  Hg  Hg57  1  0.71877985  0.41900902  0.98525549  1
  Hg  Hg58  1  0.78122015  0.58099098  0.48525549  1
  Hg  Hg59  1  0.28122015  0.91900902  0.51474451  1
  Hg  Hg60  1  0.78122015  0.91900902  0.98525549  1
  Hg  Hg61  1  0.28122015  0.58099098  0.01474451  1
  Hg  Hg62  1  0.21877985  0.41900902  0.51474451  1
  Hg  Hg63  1  0.71877985  0.08099098  0.48525549  1
