# generated using pymatgen
data_Ba2(SnSb2)3
_symmetry_space_group_name_H-M   'P 1'
_cell_length_a   4.49358460
_cell_length_b   13.61560809
_cell_length_c   25.00857953
_cell_angle_alpha   90.00000000
_cell_angle_beta   90.00000000
_cell_angle_gamma   90.00000000
_symmetry_Int_Tables_number   1
_chemical_formula_structural   Ba2(SnSb2)3
_chemical_formula_sum   'Ba8 Sn12 Sb24'
_cell_volume   1530.09709123
_cell_formula_units_Z   4
loop_
 _symmetry_equiv_pos_site_id
 _symmetry_equiv_pos_as_xyz
  1  'x, y, z'
loop_
 _atom_site_type_symbol
 _atom_site_label
 _atom_site_symmetry_multiplicity
 _atom_site_fract_x
 _atom_site_fract_y
 _atom_site_fract_z
 _atom_site_occupancy
  Sn  Sn0  1  0.25000000  0.31972283  0.40197504  1
  Sn  Sn1  1  0.25000000  0.81972283  0.09802496  1
  Sn  Sn2  1  0.75000000  0.18027717  0.90197504  1
  Sn  Sn3  1  0.75000000  0.68027717  0.59802496  1
  Sn  Sn4  1  0.25000000  0.69463120  0.73422053  1
  Sn  Sn5  1  0.75000000  0.30536880  0.26577947  1
  Sn  Sn6  1  0.25000000  0.19463120  0.76577947  1
  Sn  Sn7  1  0.75000000  0.80536880  0.23422053  1
  Sn  Sn8  1  0.75000000  0.95850213  0.75052863  1
  Sn  Sn9  1  0.25000000  0.04149787  0.24947137  1
  Sn  Sn10  1  0.75000000  0.45850213  0.74947137  1
  Sn  Sn11  1  0.25000000  0.54149787  0.25052863  1
  Sb  Sb12  1  0.75000000  0.57038340  0.49707034  1
  Sb  Sb13  1  0.25000000  0.42961660  0.50292966  1
  Sb  Sb14  1  0.75000000  0.07038340  0.00292966  1
  Sb  Sb15  1  0.25000000  0.92961660  0.99707034  1
  Sb  Sb16  1  0.75000000  0.43484848  0.35591503  1
  Sb  Sb17  1  0.25000000  0.06515152  0.85591503  1
  Sb  Sb18  1  0.25000000  0.56515152  0.64408497  1
  Sb  Sb19  1  0.75000000  0.93484848  0.14408497  1
  Sb  Sb20  1  0.75000000  0.83884007  0.42201588  1
  Sb  Sb21  1  0.25000000  0.16115993  0.57798412  1
  Sb  Sb22  1  0.75000000  0.33884007  0.07798412  1
  Sb  Sb23  1  0.25000000  0.66115993  0.92201588  1
  Sb  Sb24  1  0.75000000  0.69904027  0.99763755  1
  Sb  Sb25  1  0.25000000  0.30095973  0.00236245  1
  Sb  Sb26  1  0.75000000  0.19904027  0.50236245  1
  Sb  Sb27  1  0.25000000  0.80095973  0.49763755  1
  Sb  Sb28  1  0.75000000  0.65103215  0.80333769  1
  Sb  Sb29  1  0.25000000  0.34896785  0.19666231  1
  Sb  Sb30  1  0.75000000  0.15103215  0.69666231  1
  Sb  Sb31  1  0.25000000  0.84896785  0.30333769  1
  Sb  Sb32  1  0.75000000  0.61598344  0.18496720  1
  Sb  Sb33  1  0.25000000  0.38401656  0.81503280  1
  Sb  Sb34  1  0.75000000  0.11598344  0.31503280  1
  Sb  Sb35  1  0.25000000  0.88401656  0.68496720  1
  Ba  Ba36  1  0.25000000  0.54856401  0.07923060  1
  Ba  Ba37  1  0.75000000  0.45143599  0.92076940  1
  Ba  Ba38  1  0.25000000  0.04856401  0.42076940  1
  Ba  Ba39  1  0.75000000  0.95143599  0.57923060  1
  Ba  Ba40  1  0.25000000  0.63023453  0.39150947  1
  Ba  Ba41  1  0.75000000  0.36976547  0.60849053  1
  Ba  Ba42  1  0.25000000  0.13023453  0.10849053  1
  Ba  Ba43  1  0.75000000  0.86976547  0.89150947  1
