# generated using pymatgen
data_Nd3PO7
_symmetry_space_group_name_H-M   'P 1'
_cell_length_a   9.35939103
_cell_length_b   9.35939146
_cell_length_c   12.40000040
_cell_angle_alpha   102.78228985
_cell_angle_beta   102.78228767
_cell_angle_gamma   91.07731798
_symmetry_Int_Tables_number   1
_chemical_formula_structural   Nd3PO7
_chemical_formula_sum   'Nd18 P6 O42'
_cell_volume   1030.42243871
_cell_formula_units_Z   6
loop_
 _symmetry_equiv_pos_site_id
 _symmetry_equiv_pos_as_xyz
  1  'x, y, z'
loop_
 _atom_site_type_symbol
 _atom_site_label
 _atom_site_symmetry_multiplicity
 _atom_site_fract_x
 _atom_site_fract_y
 _atom_site_fract_z
 _atom_site_occupancy
  Nd  Nd0  1  0.80847300  0.49891400  0.37933300  1
  Nd  Nd1  1  0.49891400  0.80847300  0.37933300  1
  Nd  Nd2  1  0.16515100  0.51082200  0.91938900  1
  Nd  Nd3  1  0.51082200  0.16515100  0.91938900  1
  Nd  Nd4  1  0.14110000  0.52201900  0.60757500  1
  Nd  Nd5  1  0.52201900  0.14110000  0.60757500  1
  Nd  Nd6  1  0.16940300  0.85495600  0.49555700  1
  Nd  Nd7  1  0.85495600  0.16940300  0.49555700  1
  Nd  Nd8  1  0.49413900  0.80832400  0.71993900  1
  Nd  Nd9  1  0.80832400  0.49413900  0.71993900  1
  Nd  Nd10  1  0.50791500  0.85392100  0.05360100  1
  Nd  Nd11  1  0.85392100  0.50791500  0.05360100  1
  Nd  Nd12  1  0.15588100  0.80926200  0.16152700  1
  Nd  Nd13  1  0.80926200  0.15588100  0.16152700  1
  Nd  Nd14  1  0.15198500  0.49811500  0.29559300  1
  Nd  Nd15  1  0.49811500  0.15198500  0.29559300  1
  Nd  Nd16  1  0.16468900  0.85462900  0.83590700  1
  Nd  Nd17  1  0.85462900  0.16468900  0.83590700  1
  P  P18  1  0.16753600  0.16753600  0.71944400  1
  P  P19  1  0.49474600  0.49474600  0.49637900  1
  P  P20  1  0.49917400  0.49917400  0.87425000  1
  P  P21  1  0.82742700  0.82742700  0.28824200  1
  P  P22  1  0.16358600  0.16358600  0.34043400  1
  P  P23  1  0.83663900  0.83663900  0.92695500  1
  O  O24  1  0.53426000  0.53426000  0.38929500  1
  O  O25  1  0.71972700  0.71972700  0.31883900  1
  O  O26  1  0.40377300  0.40377300  0.92697300  1
  O  O27  1  0.39491700  0.58771400  0.80219900  1
  O  O28  1  0.58771400  0.39491700  0.80219900  1
  O  O29  1  0.33218100  0.52305300  0.49537900  1
  O  O30  1  0.52305300  0.33218100  0.49537900  1
  O  O31  1  0.06442500  0.06442500  0.61328300  1
  O  O32  1  0.32954200  0.13856100  0.71843900  1
  O  O33  1  0.13856100  0.32954200  0.71843900  1
  O  O34  1  0.26729800  0.07459200  0.41249900  1
  O  O35  1  0.07459200  0.26729800  0.41249900  1
  O  O36  1  0.04461500  0.61531200  0.44416500  1
  O  O37  1  0.61531200  0.04461500  0.44416500  1
  O  O38  1  0.92450300  0.92450300  0.39940300  1
  O  O39  1  0.61857700  0.04826700  0.77101500  1
  O  O40  1  0.04826700  0.61857700  0.77101500  1
  O  O41  1  0.73982000  0.73982000  0.81556000  1
  O  O42  1  0.59573600  0.59573600  0.60464900  1
  O  O43  1  0.43592100  0.88918600  0.55199600  1
  O  O44  1  0.88918600  0.43592100  0.55199600  1
  O  O45  1  0.41079600  0.90483400  0.21901300  1
  O  O46  1  0.90483400  0.41079600  0.21901300  1
  O  O47  1  0.60515400  0.60515400  0.97903600  1
  O  O48  1  0.77357000  0.22795500  0.66319400  1
  O  O49  1  0.22795500  0.77357000  0.66319400  1
  O  O50  1  0.92598700  0.41417700  0.88528400  1
  O  O51  1  0.41417700  0.92598700  0.88528400  1
  O  O52  1  0.75800900  0.25296300  0.99596500  1
  O  O53  1  0.25296300  0.75800900  0.99596500  1
  O  O54  1  0.94451100  0.94451100  0.89666500  1
  O  O55  1  0.13139400  0.13139400  0.82869900  1
  O  O56  1  0.25943600  0.25943600  0.28837100  1
  O  O57  1  0.73688400  0.24946800  0.32988800  1
  O  O58  1  0.24946800  0.73688400  0.32988800  1
  O  O59  1  0.54541700  0.11784100  0.10744200  1
  O  O60  1  0.11784100  0.54541700  0.10744200  1
  O  O61  1  0.05808700  0.05808700  0.23510100  1
  O  O62  1  0.73926300  0.93107600  0.99611300  1
  O  O63  1  0.93107600  0.73926300  0.99611300  1
  O  O64  1  0.73279500  0.92460100  0.21899800  1
  O  O65  1  0.92460100  0.73279500  0.21899800  1
