# generated using pymatgen
data_Sr3(GeN)2
_symmetry_space_group_name_H-M   'P 1'
_cell_length_a   3.91315953
_cell_length_b   9.10316177
_cell_length_c   9.69573506
_cell_angle_alpha   112.55982303
_cell_angle_beta   90.00000000
_cell_angle_gamma   90.00000000
_symmetry_Int_Tables_number   1
_chemical_formula_structural   Sr3(GeN)2
_chemical_formula_sum   'Sr6 Ge4 N4'
_cell_volume   318.95381180
_cell_formula_units_Z   2
loop_
 _symmetry_equiv_pos_site_id
 _symmetry_equiv_pos_as_xyz
  1  'x, y, z'
loop_
 _atom_site_type_symbol
 _atom_site_label
 _atom_site_symmetry_multiplicity
 _atom_site_fract_x
 _atom_site_fract_y
 _atom_site_fract_z
 _atom_site_occupancy
  N  N0  1  0.25000000  0.57015234  0.17398533  1
  N  N1  1  0.75000000  0.42984766  0.82601467  1
  N  N2  1  0.25000000  0.68483739  0.50829567  1
  N  N3  1  0.75000000  0.31516261  0.49170433  1
  Ge  Ge4  1  0.25000000  0.91417686  0.94300006  1
  Ge  Ge5  1  0.75000000  0.08582314  0.05699994  1
  Ge  Ge6  1  0.75000000  0.24132649  0.65057815  1
  Ge  Ge7  1  0.25000000  0.75867351  0.34942185  1
  Sr  Sr8  1  0.25000000  0.11875075  0.35316193  1
  Sr  Sr9  1  0.75000000  0.88124925  0.64683807  1
  Sr  Sr10  1  0.25000000  0.51894719  0.66964648  1
  Sr  Sr11  1  0.75000000  0.48105281  0.33035352  1
  Sr  Sr12  1  0.25000000  0.31760943  0.94347583  1
  Sr  Sr13  1  0.75000000  0.68239057  0.05652417  1
