# generated using pymatgen
data_Ho10Ti6O27
_symmetry_space_group_name_H-M   'P 1'
_cell_length_a   7.24163468
_cell_length_b   7.28482684
_cell_length_c   29.84467160
_cell_angle_alpha   60.77879016
_cell_angle_beta   59.91198899
_cell_angle_gamma   59.80250542
_symmetry_Int_Tables_number   1
_chemical_formula_structural   Ho10Ti6O27
_chemical_formula_sum   'Ho20 Ti12 O54'
_cell_volume   1117.23938194
_cell_formula_units_Z   2
loop_
 _symmetry_equiv_pos_site_id
 _symmetry_equiv_pos_as_xyz
  1  'x, y, z'
loop_
 _atom_site_type_symbol
 _atom_site_label
 _atom_site_symmetry_multiplicity
 _atom_site_fract_x
 _atom_site_fract_y
 _atom_site_fract_z
 _atom_site_occupancy
  Ho  Ho0  1  0.99395706  0.00958881  0.24611375  1
  Ho  Ho1  1  0.50765818  0.99815349  0.99900871  1
  Ho  Ho2  1  0.51684363  0.98590969  0.11890681  1
  Ho  Ho3  1  0.50172108  0.51857642  0.99028152  1
  Ho  Ho4  1  0.99395706  0.51199912  0.24611375  1
  Ho  Ho5  1  0.50096055  -0.01552940  0.25752456  1
  Ho  Ho6  1  0.97677597  0.48686995  0.38737103  1
  Ho  Ho7  1  0.51684363  0.52161946  0.11890681  1
  Ho  Ho8  1  0.47578660  0.98559884  0.38332479  1
  Ho  Ho9  1  0.50374224  0.50461988  0.24675450  1
  Ho  Ho10  1  0.47578660  0.50531541  0.38332479  1
  Ho  Ho11  1  0.99636565  0.49082686  0.63049516  1
  Ho  Ho12  1  0.48599381  0.00410282  0.62746822  1
  Ho  Ho13  1  0.48269883  0.50146123  0.50359468  1
  Ho  Ho14  1  -0.00116517  0.50695162  0.87181548  1
  Ho  Ho15  1  0.48599381  0.50003048  0.62746822  1
  Ho  Ho16  1  0.50072996  0.00547707  0.74707897  1
  Ho  Ho17  1  0.53024493  0.01639884  0.86316508  1
  Ho  Ho18  1  0.46714029  0.51627607  0.75007689  1
  Ho  Ho19  1  0.53024493  0.50069591  0.86316508  1
  O  O20  1  0.15874880  0.19824527  0.14249186  1
  O  O21  1  0.61758097  0.15264490  0.02989531  1
  O  O22  1  0.15874880  0.57303847  0.14249186  1
  O  O23  1  0.07577371  0.08196759  0.41863737  1
  O  O24  1  0.33014308  0.89522000  0.09485423  1
  O  O25  1  0.37756780  0.35735469  0.21606722  1
  O  O26  1  0.89331228  0.88652949  0.20840718  1
  O  O27  1  0.61758097  0.61019290  0.02989531  1
  O  O28  1  0.87019835  0.29154484  0.10261385  1
  O  O29  1  0.65357103  0.61912372  0.15204538  1
  O  O30  1  0.37756780  0.90080861  0.21606722  1
  O  O31  1  0.61020960  0.13184115  0.29284246  1
  O  O32  1  0.07577371  0.66770921  0.41863737  1
  O  O33  1  0.09267478  0.11961685  0.65608675  1
  O  O34  1  0.08956675  0.67631086  0.51445288  1
  O  O35  1  0.33507520  0.32268579  0.47840185  1
  O  O36  1  0.33503853  0.89383339  0.34432367  1
  O  O37  1  0.87019835  0.92780141  0.10261385  1
  O  O38  1  0.61020960  0.58657943  0.29284246  1
  O  O39  1  0.87668163  0.37345306  0.21910306  1
  O  O40  1  0.69758455  0.12246780  0.38936996  1
  O  O41  1  0.03111927  0.37992053  0.32336700  1
  O  O42  1  0.61652964  0.62316741  0.40928388  1
  O  O43  1  0.33507520  0.92863161  0.47840185  1
  O  O44  1  0.67404986  0.07693325  0.51617236  1
  O  O45  1  0.09267478  0.66336136  0.65608675  1
  O  O46  1  0.37733549  0.38276467  0.58928379  1
  O  O47  1  0.32195677  0.92275610  0.58313276  1
  O  O48  1  0.32323307  0.38246149  0.72091139  1
  O  O49  1  0.03453438  0.11208622  0.91529508  1
  O  O50  1  0.07576518  0.65275460  0.77968140  1
  O  O51  1  0.64855954  0.11800916  0.65385554  1
  O  O52  1  0.91533892  0.32865864  0.48183595  1
  O  O53  1  0.67404986  0.68432745  0.51617236  1
  O  O54  1  0.03111927  0.79549220  0.32336700  1
  O  O55  1  0.92175102  0.33263097  0.57970616  1
  O  O56  1  0.62452187  0.63037816  0.65368045  1
  O  O57  1  0.32323307  0.91065989  0.72091139  1
  O  O58  1  0.03453438  0.69219909  0.91529508  1
  O  O59  1  0.64807081  0.13086266  0.77386411  1
  O  O60  1  0.36166269  0.37968370  0.84474248  1
  O  O61  1  0.27300607  0.37630347  0.98883299  1
  O  O62  1  0.32159557  0.91257080  0.83831571  1
  O  O63  1  0.64586032  0.10859198  0.90923893  1
  O  O64  1  0.95959397  0.32500833  0.72259734  1
  O  O65  1  0.92175102  0.92679337  0.57970616  1
  O  O66  1  0.64807081  0.62561008  0.77386411  1
  O  O67  1  0.61950746  0.63523403  0.90250612  1
  O  O68  1  0.92704929  0.33291191  0.82636422  1
  O  O69  1  0.27300607  0.89535850  0.98883299  1
  O  O70  1  0.88479689  0.87640647  0.71559754  1
  O  O71  1  0.91520163  0.34706848  0.97266535  1
  O  O72  1  0.92704929  0.93458193  0.82636422  1
  O  O73  1  0.89438028  0.78050337  0.01115325  1
  Ti  Ti74  1  0.97900761  0.03507528  0.98731716  1
  Ti  Ti75  1  0.97900761  0.53664848  0.98731716  1
  Ti  Ti76  1  0.97810922  0.47855180  0.14119679  1
  Ti  Ti77  1  0.98778636  0.99345557  0.50782677  1
  Ti  Ti78  1  0.00784033  -0.00472946  0.12540465  1
  Ti  Ti79  1  0.97340342  0.99307396  0.63511217  1
  Ti  Ti80  1  0.98778636  0.48745098  0.50782677  1
  Ti  Ti81  1  0.47306442  0.99146804  0.51099987  1
  Ti  Ti82  1  0.01443933  0.97593940  0.38342047  1
  Ti  Ti83  1  0.99169025  1.00141308  0.74229331  1
  Ti  Ti84  1  0.99590518  0.02353554  0.86425593  1
  Ti  Ti85  1  0.99169025  0.53772344  0.74229331  1
