# generated using pymatgen
data_K2Te2O5
_symmetry_space_group_name_H-M   'P 1'
_cell_length_a   5.61008058
_cell_length_b   7.91057870
_cell_length_c   15.48572187
_cell_angle_alpha   90.00000000
_cell_angle_beta   90.00000000
_cell_angle_gamma   93.79883086
_symmetry_Int_Tables_number   1
_chemical_formula_structural   K2Te2O5
_chemical_formula_sum   'K8 Te8 O20'
_cell_volume   685.73061185
_cell_formula_units_Z   4
loop_
 _symmetry_equiv_pos_site_id
 _symmetry_equiv_pos_as_xyz
  1  'x, y, z'
loop_
 _atom_site_type_symbol
 _atom_site_label
 _atom_site_symmetry_multiplicity
 _atom_site_fract_x
 _atom_site_fract_y
 _atom_site_fract_z
 _atom_site_occupancy
  O  O0  1  0.77423731  0.94483646  0.64690261  1
  O  O1  1  0.72576269  0.05516354  0.14690261  1
  O  O2  1  0.22576269  0.05516354  0.35309739  1
  O  O3  1  0.27423731  0.94483646  0.85309739  1
  O  O4  1  0.84362263  0.31341434  0.63834294  1
  O  O5  1  0.65637737  0.68658566  0.13834294  1
  O  O6  1  0.15637737  0.68658566  0.36165706  1
  O  O7  1  0.34362263  0.31341434  0.86165706  1
  O  O8  1  0.41812004  0.14538297  0.56612628  1
  O  O9  1  0.08187996  0.85461703  0.06612628  1
  O  O10  1  0.58187996  0.85461703  0.43387372  1
  O  O11  1  0.91812004  0.14538297  0.93387372  1
  O  O12  1  0.50110202  0.55472219  0.74398947  1
  O  O13  1  0.99889798  0.44527781  0.24398947  1
  O  O14  1  0.49889798  0.44527781  0.25601053  1
  O  O15  1  0.00110202  0.55472219  0.75601053  1
  O  O16  1  0.73268705  0.56729801  0.90862664  1
  O  O17  1  0.76731295  0.43270199  0.40862664  1
  O  O18  1  0.26731295  0.43270199  0.09137336  1
  O  O19  1  0.23268705  0.56729801  0.59137336  1
  K  K20  1  0.73386430  0.62572765  0.56713398  1
  K  K21  1  0.76613570  0.37427235  0.06713398  1
  K  K22  1  0.26613570  0.37427235  0.43286602  1
  K  K23  1  0.23386430  0.62572765  0.93286602  1
  K  K24  1  0.26331138  0.88167626  0.68080002  1
  K  K25  1  0.23668862  0.11832374  0.18080002  1
  K  K26  1  0.73668862  0.11832374  0.31919998  1
  K  K27  1  0.76331138  0.88167626  0.81919998  1
  Te  Te28  1  0.19957259  0.41807822  0.68422472  1
  Te  Te29  1  0.30042741  0.58192178  0.18422472  1
  Te  Te30  1  0.80042741  0.58192178  0.31577528  1
  Te  Te31  1  0.69957259  0.41807822  0.81577528  1
  Te  Te32  1  0.74908102  0.11953316  0.56600276  1
  Te  Te33  1  0.75091898  0.88046684  0.06600276  1
  Te  Te34  1  0.25091898  0.88046684  0.43399724  1
  Te  Te35  1  0.24908102  0.11953316  0.93399724  1
