# generated using pymatgen
data_Li3CoOF3
_symmetry_space_group_name_H-M   'P 1'
_cell_length_a   2.98609163
_cell_length_b   5.14207831
_cell_length_c   10.20467358
_cell_angle_alpha   79.35960138
_cell_angle_beta   90.04772887
_cell_angle_gamma   106.96431461
_symmetry_Int_Tables_number   1
_chemical_formula_structural   Li3CoOF3
_chemical_formula_sum   'Li6 Co2 O2 F6'
_cell_volume   147.06012737
_cell_formula_units_Z   2
loop_
 _symmetry_equiv_pos_site_id
 _symmetry_equiv_pos_as_xyz
  1  'x, y, z'
loop_
 _atom_site_type_symbol
 _atom_site_label
 _atom_site_symmetry_multiplicity
 _atom_site_fract_x
 _atom_site_fract_y
 _atom_site_fract_z
 _atom_site_occupancy
  Li  Li0  1  0.75148552  0.50410514  0.86921791  1
  Li  Li1  1  0.50050982  0.00261740  0.74967786  1
  Li  Li2  1  0.50735792  0.00139640  0.25013185  1
  Li  Li3  1  0.00103586  0.00288269  0.49641917  1
  Li  Li4  1  0.25178150  0.50128839  0.63001747  1
  Li  Li5  1  0.00081988  0.00178539  0.00298160  1
  Co  Co6  1  0.73989337  0.49111191  0.36304297  1
  Co  Co7  1  0.25055584  0.51258334  0.13721384  1
  O  O8  1  0.89269411  0.75595962  0.18479551  1
  O  O9  1  0.13732392  0.24789245  0.31537174  1
  F  F10  1  0.87632025  0.75324750  0.68803770  1
  F  F11  1  0.63020635  0.25244595  0.56849200  1
  F  F12  1  0.62203985  0.26283913  0.04970490  1
  F  F13  1  0.12560639  0.25176833  0.81080366  1
  F  F14  1  0.37863551  0.75248335  0.93094458  1
  F  F15  1  0.36120891  0.74231501  0.45002323  1
