# generated using pymatgen
data_SiI3
_symmetry_space_group_name_H-M   'P 1'
_cell_length_a   8.50299466
_cell_length_b   13.28485370
_cell_length_c   14.72551536
_cell_angle_alpha   90.00000000
_cell_angle_beta   90.00000000
_cell_angle_gamma   90.00000000
_symmetry_Int_Tables_number   1
_chemical_formula_structural   SiI3
_chemical_formula_sum   'Si8 I24'
_cell_volume   1663.40953063
_cell_formula_units_Z   8
loop_
 _symmetry_equiv_pos_site_id
 _symmetry_equiv_pos_as_xyz
  1  'x, y, z'
loop_
 _atom_site_type_symbol
 _atom_site_label
 _atom_site_symmetry_multiplicity
 _atom_site_fract_x
 _atom_site_fract_y
 _atom_site_fract_z
 _atom_site_occupancy
  Si  Si0  1  0.28057424  0.75000000  0.39621882  1
  Si  Si1  1  0.78057424  0.25000000  0.10378118  1
  Si  Si2  1  0.71942576  0.25000000  0.60378118  1
  Si  Si3  1  0.21942576  0.75000000  0.89621882  1
  Si  Si4  1  0.54925704  0.75000000  0.35338674  1
  Si  Si5  1  0.04925704  0.25000000  0.14661326  1
  Si  Si6  1  0.45074296  0.25000000  0.64661326  1
  Si  Si7  1  0.95074296  0.75000000  0.85338674  1
  I  I8  1  0.27001334  0.59756555  0.98646932  1
  I  I9  1  0.77001334  0.40243445  0.51353068  1
  I  I10  1  0.72998666  0.09756555  0.01353068  1
  I  I11  1  0.22998666  0.90243445  0.48646932  1
  I  I12  1  0.72998666  0.40243445  0.01353068  1
  I  I13  1  0.22998666  0.59756555  0.48646932  1
  I  I14  1  0.27001334  0.90243445  0.98646932  1
  I  I15  1  0.77001334  0.09756555  0.51353068  1
  I  I16  1  0.79105220  0.75000000  0.99305401  1
  I  I17  1  0.29105220  0.25000000  0.50694599  1
  I  I18  1  0.20894780  0.25000000  0.00694599  1
  I  I19  1  0.70894780  0.75000000  0.49305401  1
  I  I20  1  0.38210850  0.75000000  0.75820112  1
  I  I21  1  0.88210850  0.25000000  0.74179888  1
  I  I22  1  0.61789150  0.25000000  0.24179888  1
  I  I23  1  0.11789150  0.75000000  0.25820112  1
  I  I24  1  0.39672890  0.09802094  0.73696138  1
  I  I25  1  0.89672890  0.90197906  0.76303862  1
  I  I26  1  0.60327110  0.59802094  0.26303862  1
  I  I27  1  0.10327110  0.40197906  0.23696138  1
  I  I28  1  0.60327110  0.90197906  0.26303862  1
  I  I29  1  0.10327110  0.09802094  0.23696138  1
  I  I30  1  0.39672890  0.40197906  0.73696138  1
  I  I31  1  0.89672890  0.59802094  0.76303862  1
