# generated using pymatgen
data_Ho3Ge3Ir2
_symmetry_space_group_name_H-M   'P 1'
_cell_length_a   4.31049374
_cell_length_b   5.65273362
_cell_length_c   14.29018436
_cell_angle_alpha   90.00000000
_cell_angle_beta   90.00000000
_cell_angle_gamma   112.41269090
_symmetry_Int_Tables_number   1
_chemical_formula_structural   Ho3Ge3Ir2
_chemical_formula_sum   'Ho6 Ge6 Ir4'
_cell_volume   321.89353099
_cell_formula_units_Z   2
loop_
 _symmetry_equiv_pos_site_id
 _symmetry_equiv_pos_as_xyz
  1  'x, y, z'
loop_
 _atom_site_type_symbol
 _atom_site_label
 _atom_site_symmetry_multiplicity
 _atom_site_fract_x
 _atom_site_fract_y
 _atom_site_fract_z
 _atom_site_occupancy
  Ge  Ge0  1  0.65556977  0.31113953  0.25000000  1
  Ge  Ge1  1  0.34443023  0.68886047  0.75000000  1
  Ge  Ge2  1  0.62309883  0.24619765  0.53509793  1
  Ge  Ge3  1  0.37690117  0.75380235  0.46490207  1
  Ge  Ge4  1  0.37690117  0.75380235  0.03509793  1
  Ge  Ge5  1  0.62309883  0.24619765  0.96490207  1
  Ho  Ho6  1  0.08436673  0.16873346  0.11024745  1
  Ho  Ho7  1  0.91563327  0.83126654  0.88975255  1
  Ho  Ho8  1  0.91563327  0.83126654  0.61024745  1
  Ho  Ho9  1  0.08436673  0.16873346  0.38975255  1
  Ho  Ho10  1  0.35785787  0.71571573  0.25000000  1
  Ho  Ho11  1  0.64214213  0.28428427  0.75000000  1
  Ir  Ir12  1  0.20045068  0.40090135  0.60266810  1
  Ir  Ir13  1  0.79954932  0.59909865  0.39733190  1
  Ir  Ir14  1  0.79954932  0.59909865  0.10266810  1
  Ir  Ir15  1  0.20045068  0.40090135  0.89733190  1
