# generated using pymatgen
data_Re3Te4Cl5
_symmetry_space_group_name_H-M   'P 1'
_cell_length_a   9.43250601
_cell_length_b   16.00341128
_cell_length_c   20.33187716
_cell_angle_alpha   90.00000000
_cell_angle_beta   90.00000000
_cell_angle_gamma   90.00000000
_symmetry_Int_Tables_number   1
_chemical_formula_structural   Re3Te4Cl5
_chemical_formula_sum   'Re24 Te32 Cl40'
_cell_volume   3069.14307327
_cell_formula_units_Z   8
loop_
 _symmetry_equiv_pos_site_id
 _symmetry_equiv_pos_as_xyz
  1  'x, y, z'
loop_
 _atom_site_type_symbol
 _atom_site_label
 _atom_site_symmetry_multiplicity
 _atom_site_fract_x
 _atom_site_fract_y
 _atom_site_fract_z
 _atom_site_occupancy
  Cl  Cl0  1  0.98470411  0.81879225  0.46934457  1
  Cl  Cl1  1  0.48470411  0.18120775  0.53065543  1
  Cl  Cl2  1  0.98470411  0.68120775  0.96934457  1
  Cl  Cl3  1  0.48470411  0.31879225  0.03065543  1
  Cl  Cl4  1  0.80793470  0.42619013  0.55177769  1
  Cl  Cl5  1  0.30793470  0.57380987  0.44822231  1
  Cl  Cl6  1  0.80793470  0.07380987  0.05177769  1
  Cl  Cl7  1  0.30793470  0.92619013  0.94822231  1
  Cl  Cl8  1  0.22312532  0.81788296  0.62332711  1
  Cl  Cl9  1  0.72312532  0.18211704  0.37667289  1
  Cl  Cl10  1  0.22312532  0.68211704  0.12332711  1
  Cl  Cl11  1  0.72312532  0.31788296  0.87667289  1
  Cl  Cl12  1  0.44573064  0.41654618  0.57189033  1
  Cl  Cl13  1  0.94573064  0.58345382  0.42810967  1
  Cl  Cl14  1  0.44573064  0.08345382  0.07189033  1
  Cl  Cl15  1  0.94573064  0.91654618  0.92810967  1
  Cl  Cl16  1  0.40582949  0.59224638  0.84133047  1
  Cl  Cl17  1  0.90582949  0.40775362  0.15866953  1
  Cl  Cl18  1  0.40582949  0.90775362  0.34133047  1
  Cl  Cl19  1  0.90582949  0.09224638  0.65866953  1
  Cl  Cl20  1  0.60940452  0.92229436  0.83594425  1
  Cl  Cl21  1  0.10940452  0.07770564  0.16405575  1
  Cl  Cl22  1  0.60940452  0.57770564  0.33594425  1
  Cl  Cl23  1  0.10940452  0.42229436  0.66405575  1
  Cl  Cl24  1  0.01500126  0.64638665  0.77979870  1
  Cl  Cl25  1  0.51500126  0.35361335  0.22020130  1
  Cl  Cl26  1  0.01500126  0.85361335  0.27979870  1
  Cl  Cl27  1  0.51500126  0.14638665  0.72020130  1
  Cl  Cl28  1  0.73586973  0.97736852  0.48832091  1
  Cl  Cl29  1  0.23586973  0.02263148  0.51167909  1
  Cl  Cl30  1  0.73586973  0.52263148  0.98832091  1
  Cl  Cl31  1  0.23586973  0.47736852  0.01167909  1
  Cl  Cl32  1  0.69642010  0.71647401  0.84185117  1
  Cl  Cl33  1  0.19642010  0.28352599  0.15814883  1
  Cl  Cl34  1  0.69642010  0.78352599  0.34185117  1
  Cl  Cl35  1  0.19642010  0.21647401  0.65814883  1
  Cl  Cl36  1  0.36823034  0.78672720  0.77584461  1
  Cl  Cl37  1  0.86823034  0.21327280  0.22415539  1
  Cl  Cl38  1  0.36823034  0.71327280  0.27584461  1
  Cl  Cl39  1  0.86823034  0.28672720  0.72415539  1
  Te  Te40  1  0.55456598  0.92730834  0.65741400  1
  Te  Te41  1  0.05456598  0.07269166  0.34258600  1
  Te  Te42  1  0.55456598  0.57269166  0.15741400  1
  Te  Te43  1  0.05456598  0.42730834  0.84258600  1
  Te  Te44  1  0.54622993  0.74564771  0.53484827  1
  Te  Te45  1  0.04622993  0.25435229  0.46515173  1
  Te  Te46  1  0.54622993  0.75435229  0.03484827  1
  Te  Te47  1  0.04622993  0.24564771  0.96515173  1
  Te  Te48  1  0.34712826  0.60874905  0.66277126  1
  Te  Te49  1  0.84712826  0.39125095  0.33722874  1
  Te  Te50  1  0.34712826  0.89125095  0.16277126  1
  Te  Te51  1  0.84712826  0.10874905  0.83722874  1
  Te  Te52  1  0.61185122  0.52302586  0.53824513  1
  Te  Te53  1  0.11185122  0.47697414  0.46175487  1
  Te  Te54  1  0.61185122  0.97697414  0.03824513  1
  Te  Te55  1  0.11185122  0.02302586  0.96175487  1
  Te  Te56  1  0.90117502  0.85053571  0.72884470  1
  Te  Te57  1  0.40117502  0.14946429  0.27115530  1
  Te  Te58  1  0.90117502  0.64946429  0.22884470  1
  Te  Te59  1  0.40117502  0.35053571  0.77115530  1
  Te  Te60  1  0.88933164  0.89786304  0.55853863  1
  Te  Te61  1  0.38933164  0.10213696  0.44146137  1
  Te  Te62  1  0.88933164  0.60213696  0.05853863  1
  Te  Te63  1  0.38933164  0.39786304  0.94146137  1
  Te  Te64  1  0.90226241  0.66508726  0.60693692  1
  Te  Te65  1  0.40226241  0.33491274  0.39306308  1
  Te  Te66  1  0.90226241  0.83491274  0.10693692  1
  Te  Te67  1  0.40226241  0.16508726  0.89306308  1
  Te  Te68  1  0.69760329  0.53133863  0.73098173  1
  Te  Te69  1  0.19760329  0.46866137  0.26901827  1
  Te  Te70  1  0.69760329  0.96866137  0.23098173  1
  Te  Te71  1  0.19760329  0.03133863  0.76901827  1
  Re  Re72  1  0.45117653  0.76717793  0.65869707  1
  Re  Re73  1  0.95117653  0.23282207  0.34130293  1
  Re  Re74  1  0.45117653  0.73282207  0.15869707  1
  Re  Re75  1  0.95117653  0.26717793  0.84130293  1
  Re  Re76  1  0.80075604  0.69063731  0.72849068  1
  Re  Re77  1  0.30075604  0.30936269  0.27150932  1
  Re  Re78  1  0.80075604  0.80936269  0.22849068  1
  Re  Re79  1  0.30075604  0.19063731  0.77150932  1
  Re  Re80  1  0.52752243  0.66300278  0.75535588  1
  Re  Re81  1  0.02752243  0.33699722  0.24464412  1
  Re  Re82  1  0.52752243  0.83699722  0.25535588  1
  Re  Re83  1  0.02752243  0.16300278  0.74464412  1
  Re  Re84  1  0.62641189  0.81901182  0.75288041  1
  Re  Re85  1  0.12641189  0.18098818  0.24711959  1
  Re  Re86  1  0.62641189  0.68098818  0.25288041  1
  Re  Re87  1  0.12641189  0.31901182  0.74711959  1
  Re  Re88  1  0.62318401  0.63708396  0.63310303  1
  Re  Re89  1  0.12318401  0.36291604  0.36689697  1
  Re  Re90  1  0.62318401  0.86291604  0.13310303  1
  Re  Re91  1  0.12318401  0.13708396  0.86689697  1
  Re  Re92  1  0.72635116  0.79495308  0.63079499  1
  Re  Re93  1  0.22635116  0.20504692  0.36920501  1
  Re  Re94  1  0.72635116  0.70504692  0.13079499  1
  Re  Re95  1  0.22635116  0.29495308  0.86920501  1
