# generated using pymatgen
data_Al2(FeSi)3
_symmetry_space_group_name_H-M   'P 1'
_cell_length_a   4.60426621
_cell_length_b   6.32770276
_cell_length_c   7.46118429
_cell_angle_alpha   101.89992994
_cell_angle_beta   106.77767700
_cell_angle_gamma   100.60816579
_symmetry_Int_Tables_number   1
_chemical_formula_structural   Al2(FeSi)3
_chemical_formula_sum   'Al4 Fe6 Si6'
_cell_volume   196.64560808
_cell_formula_units_Z   2
loop_
 _symmetry_equiv_pos_site_id
 _symmetry_equiv_pos_as_xyz
  1  'x, y, z'
loop_
 _atom_site_type_symbol
 _atom_site_label
 _atom_site_symmetry_multiplicity
 _atom_site_fract_x
 _atom_site_fract_y
 _atom_site_fract_z
 _atom_site_occupancy
  Al  Al0  1  0.41367235  0.67509122  0.05094364  1
  Al  Al1  1  0.94710939  0.35472981  0.72738984  1
  Al  Al2  1  0.05289061  0.64527019  0.27261016  1
  Al  Al3  1  0.58632765  0.32490878  0.94905636  1
  Si  Si4  1  0.54306266  0.41303769  0.34781876  1
  Si  Si5  1  0.27578951  0.04252931  0.53289073  1
  Si  Si6  1  0.45693734  0.58696231  0.65218124  1
  Si  Si7  1  0.82081901  0.02367294  0.11377313  1
  Si  Si8  1  0.17918099  0.97632706  0.88622687  1
  Si  Si9  1  0.72421049  0.95747069  0.46710927  1
  Fe  Fe10  1  0.63510839  0.97181138  0.76732697  1
  Fe  Fe11  1  0.36489161  0.02818862  0.23267303  1
  Fe  Fe12  1  0.86487796  0.68208852  0.94328042  1
  Fe  Fe13  1  0.13512204  0.31791148  0.05671958  1
  Fe  Fe14  1  0.96022110  0.70759586  0.58443683  1
  Fe  Fe15  1  0.03977890  0.29240414  0.41556317  1
