# generated using pymatgen
data_K2Te4O9
_symmetry_space_group_name_H-M   'P 1'
_cell_length_a   7.74437516
_cell_length_b   8.18317256
_cell_length_c   18.12541159
_cell_angle_alpha   90.00000000
_cell_angle_beta   90.00000000
_cell_angle_gamma   106.96496321
_symmetry_Int_Tables_number   1
_chemical_formula_structural   K2Te4O9
_chemical_formula_sum   'K8 Te16 O36'
_cell_volume   1098.68549514
_cell_formula_units_Z   4
loop_
 _symmetry_equiv_pos_site_id
 _symmetry_equiv_pos_as_xyz
  1  'x, y, z'
loop_
 _atom_site_type_symbol
 _atom_site_label
 _atom_site_symmetry_multiplicity
 _atom_site_fract_x
 _atom_site_fract_y
 _atom_site_fract_z
 _atom_site_occupancy
  O  O0  1  0.19819201  1.01516111  0.79913579  1
  O  O1  1  0.80180799  0.48483889  0.29913579  1
  O  O2  1  0.80180799  -0.01516111  0.20086421  1
  O  O3  1  0.19819201  0.51516111  0.70086421  1
  O  O4  1  0.44203989  0.64986946  0.82441459  1
  O  O5  1  0.55796011  0.85013054  0.32441459  1
  O  O6  1  0.55796011  0.35013054  0.17558541  1
  O  O7  1  0.44203989  0.14986946  0.67558541  1
  O  O8  1  0.79718581  0.59242012  0.85424787  1
  O  O9  1  0.20281419  0.90757988  0.35424787  1
  O  O10  1  0.20281419  0.40757988  0.14575213  1
  O  O11  1  0.79718581  0.09242012  0.64575213  1
  O  O12  1  0.43782615  0.26204162  0.91257137  1
  O  O13  1  0.56217385  0.23795838  0.41257137  1
  O  O14  1  0.83668291  0.67263834  0.00563923  1
  O  O15  1  0.56217385  0.73795838  0.08742863  1
  O  O16  1  0.12854360  0.33204986  0.84117229  1
  O  O17  1  0.87145640  0.16795014  0.34117229  1
  O  O18  1  0.87145640  0.66795014  0.15882771  1
  O  O19  1  0.12854360  0.83204986  0.65882771  1
  O  O20  1  0.74018714  0.90091928  0.90955331  1
  O  O21  1  0.25981286  0.59908072  0.40955331  1
  O  O22  1  0.25981286  0.09908072  0.09044669  1
  O  O23  1  0.74018714  0.40091928  0.59044669  1
  O  O24  1  0.38722785  0.41707355  0.55527174  1
  O  O25  1  0.61277215  0.08292645  0.05527174  1
  O  O26  1  0.61277215  0.58292645  0.44472826  1
  O  O27  1  0.38722785  0.91707355  0.94472826  1
  O  O28  1  0.58757994  0.57808389  0.69081551  1
  O  O29  1  0.41242006  0.92191611  0.19081551  1
  O  O30  1  0.41242006  0.42191611  0.30918449  1
  O  O31  1  0.58757994  0.07808389  0.80918449  1
  O  O32  1  0.83668291  0.17263834  0.49436077  1
  O  O33  1  0.16331709  0.32736166  0.99436077  1
  O  O34  1  0.16331709  0.82736166  0.50563923  1
  O  O35  1  0.43782615  0.76204162  0.58742863  1
  K  K36  1  0.12862171  0.63548258  0.90967148  1
  K  K37  1  0.87137829  0.86451742  0.40967148  1
  K  K38  1  0.87137829  0.36451742  0.09032852  1
  K  K39  1  0.12862171  0.13548258  0.59032852  1
  K  K40  1  0.84115348  0.87120378  0.75322310  1
  K  K41  1  0.15884652  0.62879622  0.25322310  1
  K  K42  1  0.15884652  0.12879622  0.24677690  1
  K  K43  1  0.84115348  0.37120378  0.74677690  1
  Te  Te44  1  0.37655859  0.96002494  0.74130491  1
  Te  Te45  1  0.62344141  0.53997506  0.24130491  1
  Te  Te46  1  0.62344141  0.03997506  0.25869509  1
  Te  Te47  1  0.37655859  0.46002494  0.75869509  1
  Te  Te48  1  0.64800761  0.65349162  0.92165548  1
  Te  Te49  1  0.35199239  0.84650838  0.42165548  1
  Te  Te50  1  0.35199239  0.34650838  0.07834452  1
  Te  Te51  1  0.64800761  0.15349162  0.57834452  1
  Te  Te52  1  0.17800493  0.17479670  0.90797392  1
  Te  Te53  1  0.82199507  0.32520330  0.40797392  1
  Te  Te54  1  0.82199507  0.82520330  0.09202608  1
  Te  Te55  1  0.17800493  0.67479670  0.59202608  1
  Te  Te56  1  0.60111383  0.08556257  0.91791340  1
  Te  Te57  1  0.39888617  0.41443743  0.41791340  1
  Te  Te58  1  0.39888617  0.91443743  0.08208660  1
  Te  Te59  1  0.60111383  0.58556257  0.58208660  1
