# generated using pymatgen
data_Rb2Hg3Te4
_symmetry_space_group_name_H-M   'P 1'
_cell_length_a   7.41156832
_cell_length_b   12.61855538
_cell_length_c   14.90287801
_cell_angle_alpha   90.00000000
_cell_angle_beta   90.00000000
_cell_angle_gamma   90.00000000
_symmetry_Int_Tables_number   1
_chemical_formula_structural   Rb2Hg3Te4
_chemical_formula_sum   'Rb8 Hg12 Te16'
_cell_volume   1393.76611190
_cell_formula_units_Z   4
loop_
 _symmetry_equiv_pos_site_id
 _symmetry_equiv_pos_as_xyz
  1  'x, y, z'
loop_
 _atom_site_type_symbol
 _atom_site_label
 _atom_site_symmetry_multiplicity
 _atom_site_fract_x
 _atom_site_fract_y
 _atom_site_fract_z
 _atom_site_occupancy
  Rb  Rb0  1  0.66464059  0.13541948  0.95832777  1
  Rb  Rb1  1  0.66464059  0.86458052  0.54167223  1
  Rb  Rb2  1  0.83535941  0.63541948  0.04167223  1
  Rb  Rb3  1  0.83535941  0.36458052  0.45832777  1
  Rb  Rb4  1  0.33535941  0.86458052  0.04167223  1
  Rb  Rb5  1  0.33535941  0.13541948  0.45832777  1
  Rb  Rb6  1  0.16464059  0.36458052  0.95832777  1
  Rb  Rb7  1  0.16464059  0.63541948  0.54167223  1
  Te  Te8  1  0.14494274  0.07838902  0.88775749  1
  Te  Te9  1  0.14494274  0.92161098  0.61224251  1
  Te  Te10  1  0.35505726  0.57838902  0.11224251  1
  Te  Te11  1  0.35505726  0.42161098  0.38775749  1
  Te  Te12  1  0.66958819  0.84641262  0.84188751  1
  Te  Te13  1  0.66958819  0.15358738  0.65811249  1
  Te  Te14  1  0.83041181  0.34641262  0.15811249  1
  Te  Te15  1  0.83041181  0.65358738  0.34188751  1
  Te  Te16  1  0.33041181  0.15358738  0.15811249  1
  Te  Te17  1  0.33041181  0.84641262  0.34188751  1
  Te  Te18  1  0.16958819  0.65358738  0.84188751  1
  Te  Te19  1  0.16958819  0.34641262  0.65811249  1
  Te  Te20  1  0.64494274  0.57838902  0.61224251  1
  Te  Te21  1  0.64494274  0.42161098  0.88775749  1
  Te  Te22  1  0.85505726  0.07838902  0.38775749  1
  Te  Te23  1  0.85505726  0.92161098  0.11224251  1
  Hg  Hg24  1  0.39897007  0.50000000  0.75000000  1
  Hg  Hg25  1  0.10102993  0.00000000  0.25000000  1
  Hg  Hg26  1  0.60102993  0.50000000  0.25000000  1
  Hg  Hg27  1  0.89897007  0.00000000  0.75000000  1
  Hg  Hg28  1  0.33955821  0.15893086  0.74574522  1
  Hg  Hg29  1  0.33955821  0.84106914  0.75425478  1
  Hg  Hg30  1  0.16044179  0.65893086  0.25425478  1
  Hg  Hg31  1  0.16044179  0.34106914  0.24574522  1
  Hg  Hg32  1  0.66044179  0.84106914  0.25425478  1
  Hg  Hg33  1  0.66044179  0.15893086  0.24574522  1
  Hg  Hg34  1  0.83955821  0.34106914  0.74574522  1
  Hg  Hg35  1  0.83955821  0.65893086  0.75425478  1
