# generated using pymatgen
data_Na3VS4
_symmetry_space_group_name_H-M   'P 1'
_cell_length_a   8.01002668
_cell_length_b   13.58783743
_cell_length_c   13.58783743
_cell_angle_alpha   90.00000000
_cell_angle_beta   90.00000000
_cell_angle_gamma   90.00000000
_symmetry_Int_Tables_number   1
_chemical_formula_structural   Na3VS4
_chemical_formula_sum   'Na24 V8 S32'
_cell_volume   1478.88582736
_cell_formula_units_Z   8
loop_
 _symmetry_equiv_pos_site_id
 _symmetry_equiv_pos_as_xyz
  1  'x, y, z'
loop_
 _atom_site_type_symbol
 _atom_site_label
 _atom_site_symmetry_multiplicity
 _atom_site_fract_x
 _atom_site_fract_y
 _atom_site_fract_z
 _atom_site_occupancy
  Na  Na0  1  0.57423958  0.00000000  0.50000000  1
  Na  Na1  1  0.42576042  0.50000000  0.00000000  1
  Na  Na2  1  0.92576042  0.50000000  0.00000000  1
  Na  Na3  1  0.07423958  0.00000000  0.50000000  1
  Na  Na4  1  0.71230727  0.50000000  0.50000000  1
  Na  Na5  1  0.28769273  0.50000000  0.50000000  1
  Na  Na6  1  0.78769273  0.00000000  0.00000000  1
  Na  Na7  1  0.21230727  0.00000000  0.00000000  1
  Na  Na8  1  0.85374957  0.75569604  0.54484959  1
  Na  Na9  1  0.14625043  0.54484959  0.24430396  1
  Na  Na10  1  0.14625043  0.45515041  0.75569604  1
  Na  Na11  1  0.85374957  0.24430396  0.45515041  1
  Na  Na12  1  0.64625043  0.25569604  0.95515041  1
  Na  Na13  1  0.64625043  0.74430396  0.04484959  1
  Na  Na14  1  0.35374957  0.95515041  0.74430396  1
  Na  Na15  1  0.35374957  0.04484959  0.25569604  1
  Na  Na16  1  0.93628794  0.75352999  0.79991069  1
  Na  Na17  1  0.06371206  0.79991069  0.24647001  1
  Na  Na18  1  0.06371206  0.20008931  0.75352999  1
  Na  Na19  1  0.93628794  0.24647001  0.20008931  1
  Na  Na20  1  0.56371206  0.25352999  0.70008931  1
  Na  Na21  1  0.56371206  0.74647001  0.29991069  1
  Na  Na22  1  0.43628794  0.70008931  0.74647001  1
  Na  Na23  1  0.43628794  0.29991069  0.25352999  1
  S  S24  1  0.68155381  0.60780910  0.88676962  1
  S  S25  1  0.39584827  0.16174722  0.07952072  1
  S  S26  1  0.39584827  0.83825278  0.92047928  1
  S  S27  1  0.60415173  0.92047928  0.16174722  1
  S  S28  1  0.60415173  0.07952072  0.83825278  1
  S  S29  1  0.89584827  0.42047928  0.33825278  1
  S  S30  1  0.10415173  0.33825278  0.57952072  1
  S  S31  1  0.10415173  0.66174722  0.42047928  1
  S  S32  1  0.51290341  0.68656823  0.50878135  1
  S  S33  1  0.48709659  0.50878135  0.31343177  1
  S  S34  1  0.48709659  0.49121865  0.68656823  1
  S  S35  1  0.51290341  0.31343177  0.49121865  1
  S  S36  1  0.98709659  0.18656823  0.99121865  1
  S  S37  1  0.98709659  0.81343177  0.00878135  1
  S  S38  1  0.01290341  0.99121865  0.81343177  1
  S  S39  1  0.01290341  0.00878135  0.18656823  1
  S  S40  1  0.67828720  0.87090431  0.69007969  1
  S  S41  1  0.32171280  0.69007969  0.12909569  1
  S  S42  1  0.32171280  0.30992031  0.87090431  1
  S  S43  1  0.67828720  0.12909569  0.30992031  1
  S  S44  1  0.18155381  0.38676962  0.10780910  1
  S  S45  1  0.82171280  0.62909569  0.19007969  1
  S  S46  1  0.17828720  0.80992031  0.62909569  1
  S  S47  1  0.17828720  0.19007969  0.37090431  1
  S  S48  1  0.89584827  0.57952072  0.66174722  1
  S  S49  1  0.31844619  0.88676962  0.39219090  1
  S  S50  1  0.31844619  0.11323038  0.60780910  1
  S  S51  1  0.68155381  0.39219090  0.11323038  1
  S  S52  1  0.81844619  0.10780910  0.61323038  1
  S  S53  1  0.81844619  0.89219090  0.38676962  1
  S  S54  1  0.18155381  0.61323038  0.89219090  1
  S  S55  1  0.82171280  0.37090431  0.80992031  1
  V  V56  1  0.77954995  0.01116084  0.73844454  1
  V  V57  1  0.27954995  0.23844454  0.51116084  1
  V  V58  1  0.27954995  0.76155546  0.48883916  1
  V  V59  1  0.72045005  0.48883916  0.23844454  1
  V  V60  1  0.72045005  0.51116084  0.76155546  1
  V  V61  1  0.77954995  0.98883916  0.26155546  1
  V  V62  1  0.22045005  0.26155546  0.01116084  1
  V  V63  1  0.22045005  0.73844454  0.98883916  1
