# generated using pymatgen
data_KTe2F9
_symmetry_space_group_name_H-M   'P 1'
_cell_length_a   4.94548418
_cell_length_b   9.50763053
_cell_length_c   9.58058588
_cell_angle_alpha   109.67390878
_cell_angle_beta   96.07129422
_cell_angle_gamma   95.74194485
_symmetry_Int_Tables_number   1
_chemical_formula_structural   KTe2F9
_chemical_formula_sum   'K2 Te4 F18'
_cell_volume   417.35103435
_cell_formula_units_Z   2
loop_
 _symmetry_equiv_pos_site_id
 _symmetry_equiv_pos_as_xyz
  1  'x, y, z'
loop_
 _atom_site_type_symbol
 _atom_site_label
 _atom_site_symmetry_multiplicity
 _atom_site_fract_x
 _atom_site_fract_y
 _atom_site_fract_z
 _atom_site_occupancy
  F  F0  1  0.30894602  0.75750411  0.03239341  1
  F  F1  1  0.69105398  0.24249589  0.96760659  1
  F  F2  1  0.56559373  0.93085079  0.84459075  1
  F  F3  1  0.43440627  0.06914921  0.15540925  1
  F  F4  1  0.78698866  0.54858907  0.91578134  1
  F  F5  1  0.21301134  0.45141093  0.08421866  1
  F  F6  1  0.13650725  0.60090756  0.35860764  1
  F  F7  1  0.86349275  0.39909244  0.64139236  1
  F  F8  1  0.01668517  0.29817737  0.23629614  1
  F  F9  1  0.98331483  0.70182263  0.76370386  1
  F  F10  1  0.61944035  0.09345116  0.68543308  1
  F  F11  1  0.38055965  0.90654884  0.31456692  1
  F  F12  1  0.34510084  0.54109467  0.64947585  1
  F  F13  1  0.65489916  0.45890533  0.35052415  1
  F  F14  1  0.14849027  0.94088443  0.64046778  1
  F  F15  1  0.85150973  0.05911557  0.35953222  1
  F  F16  1  0.25727058  0.26299593  0.74921127  1
  F  F17  1  0.74272942  0.73700407  0.25078873  1
  K  K18  1  0.62056753  0.75765964  0.54353267  1
  K  K19  1  0.37943247  0.24234036  0.45646733  1
  Te  Te20  1  0.63435702  0.90504485  0.17709601  1
  Te  Te21  1  0.36564298  0.09495515  0.82290399  1
  Te  Te22  1  0.88604245  0.46245066  0.19161109  1
  Te  Te23  1  0.11395755  0.53754934  0.80838891  1
