# generated using pymatgen
data_Co6O5F7
_symmetry_space_group_name_H-M   'P 1'
_cell_length_a   4.62198967
_cell_length_b   7.67263136
_cell_length_c   5.62938939
_cell_angle_alpha   92.92849530
_cell_angle_beta   90.26883130
_cell_angle_gamma   88.11459474
_symmetry_Int_Tables_number   1
_chemical_formula_structural   Co6O5F7
_chemical_formula_sum   'Co6 O5 F7'
_cell_volume   199.26448980
_cell_formula_units_Z   1
loop_
 _symmetry_equiv_pos_site_id
 _symmetry_equiv_pos_as_xyz
  1  'x, y, z'
loop_
 _atom_site_type_symbol
 _atom_site_label
 _atom_site_symmetry_multiplicity
 _atom_site_fract_x
 _atom_site_fract_y
 _atom_site_fract_z
 _atom_site_occupancy
  Co  Co0  1  0.50771305  0.00670448  0.48518694  1
  Co  Co1  1  0.48493473  0.33636028  0.83098390  1
  Co  Co2  1  0.55058977  0.64834776  0.17128545  1
  Co  Co3  1  0.97146464  0.68678339  0.65868768  1
  Co  Co4  1  0.00611640  0.31749263  0.34494276  1
  Co  Co5  1  0.96107433  0.98652990  0.02424219  1
  O  O6  1  0.80799086  0.76884136  0.96332104  1
  O  O7  1  0.79075576  0.09868878  0.29772036  1
  O  O8  1  0.70035747  0.78020609  0.46366714  1
  O  O9  1  0.70082357  0.43209594  0.14588654  1
  O  O10  1  0.30631812  0.22618865  0.51993356  1
  F  F11  1  0.80972606  0.44045101  0.64144864  1
  F  F12  1  0.71145433  0.10237715  0.79422327  1
  F  F13  1  0.29420276  0.57930563  0.86578118  1
  F  F14  1  0.30013357  0.89122891  0.18961496  1
  F  F15  1  0.18609616  0.22326303  0.03138453  1
  F  F16  1  0.21128620  0.90760838  0.69427956  1
  F  F17  1  0.19896022  0.56752764  0.37740929  1
