# generated using pymatgen
data_Re3Ge7
_symmetry_space_group_name_H-M   'P 1'
_cell_length_a   3.26775946
_cell_length_b   4.85179655
_cell_length_c   22.15817088
_cell_angle_alpha   90.00000000
_cell_angle_beta   90.00000000
_cell_angle_gamma   109.67945679
_symmetry_Int_Tables_number   1
_chemical_formula_structural   Re3Ge7
_chemical_formula_sum   'Re6 Ge14'
_cell_volume   330.78745371
_cell_formula_units_Z   2
loop_
 _symmetry_equiv_pos_site_id
 _symmetry_equiv_pos_as_xyz
  1  'x, y, z'
loop_
 _atom_site_type_symbol
 _atom_site_label
 _atom_site_symmetry_multiplicity
 _atom_site_fract_x
 _atom_site_fract_y
 _atom_site_fract_z
 _atom_site_occupancy
  Ge  Ge0  1  0.23630450  0.47260900  0.25000000  1
  Ge  Ge1  1  0.76369550  0.52739100  0.75000000  1
  Ge  Ge2  1  0.35410060  0.70820119  0.03196929  1
  Ge  Ge3  1  0.64589940  0.29179881  0.96803071  1
  Ge  Ge4  1  0.64589940  0.29179881  0.53196929  1
  Ge  Ge5  1  0.35410060  0.70820119  0.46803071  1
  Ge  Ge6  1  0.05910612  0.11821224  0.83781898  1
  Ge  Ge7  1  0.94089388  0.88178776  0.16218102  1
  Ge  Ge8  1  0.94089388  0.88178776  0.33781898  1
  Ge  Ge9  1  0.05910612  0.11821224  0.66218102  1
  Ge  Ge10  1  0.32386345  0.64772690  0.86367656  1
  Ge  Ge11  1  0.67613655  0.35227310  0.13632344  1
  Ge  Ge12  1  0.67613655  0.35227310  0.36367656  1
  Ge  Ge13  1  0.32386345  0.64772690  0.63632344  1
  Re  Re14  1  0.51882012  0.03764024  0.25000000  1
  Re  Re15  1  0.48117988  0.96235976  0.75000000  1
  Re  Re16  1  0.07348263  0.14696527  0.05930590  1
  Re  Re17  1  0.92651737  0.85303473  0.94069410  1
  Re  Re18  1  0.92651737  0.85303473  0.55930590  1
  Re  Re19  1  0.07348263  0.14696527  0.44069410  1
