# generated using pymatgen
data_MoCl5
_symmetry_space_group_name_H-M   'P 1'
_cell_length_a   9.72781987
_cell_length_b   12.38137430
_cell_length_c   12.96518031
_cell_angle_alpha   90.00000000
_cell_angle_beta   109.72284822
_cell_angle_gamma   90.00000000
_symmetry_Int_Tables_number   1
_chemical_formula_structural   MoCl5
_chemical_formula_sum   'Mo8 Cl40'
_cell_volume   1469.96712605
_cell_formula_units_Z   8
loop_
 _symmetry_equiv_pos_site_id
 _symmetry_equiv_pos_as_xyz
  1  'x, y, z'
loop_
 _atom_site_type_symbol
 _atom_site_label
 _atom_site_symmetry_multiplicity
 _atom_site_fract_x
 _atom_site_fract_y
 _atom_site_fract_z
 _atom_site_occupancy
  Cl  Cl0  1  0.47222207  0.26560488  0.91203694  1
  Cl  Cl1  1  0.52777793  0.76560488  0.58796306  1
  Cl  Cl2  1  0.52777793  0.73439512  0.08796306  1
  Cl  Cl3  1  0.47222207  0.23439512  0.41203694  1
  Cl  Cl4  1  0.46818020  0.48883741  0.75830098  1
  Cl  Cl5  1  0.53181980  0.98883741  0.74169902  1
  Cl  Cl6  1  0.53181980  0.51116259  0.24169902  1
  Cl  Cl7  1  0.46818020  0.01116259  0.25830098  1
  Cl  Cl8  1  0.09132694  0.01925567  0.16544912  1
  Cl  Cl9  1  0.90867306  0.51925567  0.33455088  1
  Cl  Cl10  1  0.90867306  0.98074433  0.83455088  1
  Cl  Cl11  1  0.09132694  0.48074433  0.66544912  1
  Cl  Cl12  1  0.90631375  0.23556680  0.05014598  1
  Cl  Cl13  1  0.09368625  0.73556680  0.44985402  1
  Cl  Cl14  1  0.09368625  0.76443320  0.94985402  1
  Cl  Cl15  1  0.90631375  0.26443320  0.55014598  1
  Cl  Cl16  1  0.90411518  0.02198516  0.33503364  1
  Cl  Cl17  1  0.09588482  0.52198516  0.16496636  1
  Cl  Cl18  1  0.09588482  0.97801484  0.66496636  1
  Cl  Cl19  1  0.90411518  0.47801484  0.83503364  1
  Cl  Cl20  1  0.71583748  0.01588278  0.06890660  1
  Cl  Cl21  1  0.28416252  0.51588278  0.43109340  1
  Cl  Cl22  1  0.28416252  0.98411722  0.93109340  1
  Cl  Cl23  1  0.71583748  0.48411722  0.56890660  1
  Cl  Cl24  1  0.71749742  0.24089661  0.22012847  1
  Cl  Cl25  1  0.28250258  0.74089661  0.27987153  1
  Cl  Cl26  1  0.28250258  0.75910339  0.77987153  1
  Cl  Cl27  1  0.71749742  0.25910339  0.72012847  1
  Cl  Cl28  1  0.09494240  0.23400356  0.31333458  1
  Cl  Cl29  1  0.90505760  0.73400356  0.18666542  1
  Cl  Cl30  1  0.90505760  0.76599644  0.68666542  1
  Cl  Cl31  1  0.09494240  0.26599644  0.81333458  1
  Cl  Cl32  1  0.28249430  0.23135445  0.14493776  1
  Cl  Cl33  1  0.71750570  0.73135445  0.35506224  1
  Cl  Cl34  1  0.71750570  0.76864555  0.85506224  1
  Cl  Cl35  1  0.28249430  0.26864555  0.64493776  1
  Cl  Cl36  1  0.27777904  0.01788316  0.42913033  1
  Cl  Cl37  1  0.72222096  0.51788316  0.07086967  1
  Cl  Cl38  1  0.72222096  0.98211684  0.57086967  1
  Cl  Cl39  1  0.27777904  0.48211684  0.92913033  1
  Mo  Mo40  1  0.30563232  0.37548358  0.79359381  1
  Mo  Mo41  1  0.69436768  0.87548358  0.70640619  1
  Mo  Mo42  1  0.69436768  0.62451642  0.20640619  1
  Mo  Mo43  1  0.30563232  0.12451642  0.29359381  1
  Mo  Mo44  1  0.88062641  0.37205033  0.68554237  1
  Mo  Mo45  1  0.11937359  0.87205033  0.81445763  1
  Mo  Mo46  1  0.11937359  0.62794967  0.31445763  1
  Mo  Mo47  1  0.88062641  0.12794967  0.18554237  1
