# generated using pymatgen
data_NaAuSe2
_symmetry_space_group_name_H-M   'P 1'
_cell_length_a   6.86324137
_cell_length_b   7.13350124
_cell_length_c   8.59504751
_cell_angle_alpha   90.00000000
_cell_angle_beta   90.00000000
_cell_angle_gamma   105.28653145
_symmetry_Int_Tables_number   1
_chemical_formula_structural   NaAuSe2
_chemical_formula_sum   'Na4 Au4 Se8'
_cell_volume   405.91611787
_cell_formula_units_Z   4
loop_
 _symmetry_equiv_pos_site_id
 _symmetry_equiv_pos_as_xyz
  1  'x, y, z'
loop_
 _atom_site_type_symbol
 _atom_site_label
 _atom_site_symmetry_multiplicity
 _atom_site_fract_x
 _atom_site_fract_y
 _atom_site_fract_z
 _atom_site_occupancy
  Na  Na0  1  0.98694725  0.27103415  0.13242315  1
  Na  Na1  1  0.51305275  0.72896585  0.63242315  1
  Na  Na2  1  0.01305275  0.72896585  0.86757685  1
  Na  Na3  1  0.48694725  0.27103415  0.36757685  1
  Se  Se4  1  0.21364423  0.98204206  0.57464850  1
  Se  Se5  1  0.28635577  0.01795794  0.07464850  1
  Se  Se6  1  0.78635577  0.01795794  0.42535150  1
  Se  Se7  1  0.71364423  0.98204206  0.92535150  1
  Se  Se8  1  0.24916909  0.41086049  0.83072014  1
  Se  Se9  1  0.25083091  0.58913951  0.33072014  1
  Se  Se10  1  0.75083091  0.58913951  0.16927986  1
  Se  Se11  1  0.74916909  0.41086049  0.66927986  1
  Au  Au12  1  0.50751657  0.21517635  0.86777487  1
  Au  Au13  1  0.99248343  0.78482365  0.36777487  1
  Au  Au14  1  0.49248343  0.78482365  0.13222513  1
  Au  Au15  1  0.00751657  0.21517635  0.63222513  1
