# generated using pymatgen
data_Cd(AuF4)2
_symmetry_space_group_name_H-M   'P 1'
_cell_length_a   5.89164721
_cell_length_b   5.89164721
_cell_length_c   10.53472079
_cell_angle_alpha   90.00000000
_cell_angle_beta   90.00000000
_cell_angle_gamma   90.00000000
_symmetry_Int_Tables_number   1
_chemical_formula_structural   Cd(AuF4)2
_chemical_formula_sum   'Cd2 Au4 F16'
_cell_volume   365.67603283
_cell_formula_units_Z   2
loop_
 _symmetry_equiv_pos_site_id
 _symmetry_equiv_pos_as_xyz
  1  'x, y, z'
loop_
 _atom_site_type_symbol
 _atom_site_label
 _atom_site_symmetry_multiplicity
 _atom_site_fract_x
 _atom_site_fract_y
 _atom_site_fract_z
 _atom_site_occupancy
  F  F0  1  0.69286404  0.85471854  0.62966657  1
  F  F1  1  0.30713596  0.14528146  0.62966657  1
  F  F2  1  0.85471854  0.69286404  0.87033343  1
  F  F3  1  0.85471854  0.30713596  0.62966657  1
  F  F4  1  0.14528146  0.69286404  0.62966657  1
  F  F5  1  0.30713596  0.85471854  0.87033343  1
  F  F6  1  0.85471854  0.69286404  0.12966657  1
  F  F7  1  0.30713596  0.85471854  0.12966657  1
  F  F8  1  0.69286404  0.14528146  0.12966657  1
  F  F9  1  0.85471854  0.30713596  0.37033343  1
  F  F10  1  0.14528146  0.69286404  0.37033343  1
  F  F11  1  0.14528146  0.30713596  0.12966657  1
  F  F12  1  0.69286404  0.85471854  0.37033343  1
  F  F13  1  0.30713596  0.14528146  0.37033343  1
  F  F14  1  0.14528146  0.30713596  0.87033343  1
  F  F15  1  0.69286404  0.14528146  0.87033343  1
  Cd  Cd16  1  0.00000000  0.00000000  0.25000000  1
  Cd  Cd17  1  0.00000000  0.00000000  0.75000000  1
  Au  Au18  1  0.50000000  0.00000000  0.00000000  1
  Au  Au19  1  0.00000000  0.50000000  0.00000000  1
  Au  Au20  1  0.00000000  0.50000000  0.50000000  1
  Au  Au21  1  0.50000000  0.00000000  0.50000000  1
