# generated using pymatgen
data_Hg(AuF4)2
_symmetry_space_group_name_H-M   'P 1'
_cell_length_a   5.92562489
_cell_length_b   5.92562489
_cell_length_c   10.67290064
_cell_angle_alpha   90.00000000
_cell_angle_beta   90.00000000
_cell_angle_gamma   90.00000000
_symmetry_Int_Tables_number   1
_chemical_formula_structural   Hg(AuF4)2
_chemical_formula_sum   'Hg2 Au4 F16'
_cell_volume   374.75788396
_cell_formula_units_Z   2
loop_
 _symmetry_equiv_pos_site_id
 _symmetry_equiv_pos_as_xyz
  1  'x, y, z'
loop_
 _atom_site_type_symbol
 _atom_site_label
 _atom_site_symmetry_multiplicity
 _atom_site_fract_x
 _atom_site_fract_y
 _atom_site_fract_z
 _atom_site_occupancy
  F  F0  1  0.68696795  0.84944351  0.62811781  1
  F  F1  1  0.31303205  0.15055649  0.62811781  1
  F  F2  1  0.84944351  0.68696795  0.87188219  1
  F  F3  1  0.84944351  0.31303205  0.62811781  1
  F  F4  1  0.15055649  0.68696795  0.62811781  1
  F  F5  1  0.31303205  0.84944351  0.87188219  1
  F  F6  1  0.84944351  0.68696795  0.12811781  1
  F  F7  1  0.31303205  0.84944351  0.12811781  1
  F  F8  1  0.68696795  0.15055649  0.12811781  1
  F  F9  1  0.84944351  0.31303205  0.37188219  1
  F  F10  1  0.15055649  0.68696795  0.37188219  1
  F  F11  1  0.15055649  0.31303205  0.12811781  1
  F  F12  1  0.68696795  0.84944351  0.37188219  1
  F  F13  1  0.31303205  0.15055649  0.37188219  1
  F  F14  1  0.15055649  0.31303205  0.87188219  1
  F  F15  1  0.68696795  0.15055649  0.87188219  1
  Au  Au16  1  0.50000000  0.00000000  0.50000000  1
  Au  Au17  1  0.00000000  0.50000000  0.50000000  1
  Au  Au18  1  0.50000000  0.00000000  0.00000000  1
  Au  Au19  1  0.00000000  0.50000000  0.00000000  1
  Hg  Hg20  1  0.00000000  0.00000000  0.75000000  1
  Hg  Hg21  1  0.00000000  0.00000000  0.25000000  1
