# generated using pymatgen
data_SeF4
_symmetry_space_group_name_H-M   'P 1'
_cell_length_a   5.38934420
_cell_length_b   5.77888100
_cell_length_c   11.06618784
_cell_angle_alpha   90.00000000
_cell_angle_beta   90.00000000
_cell_angle_gamma   90.00000000
_symmetry_Int_Tables_number   1
_chemical_formula_structural   SeF4
_chemical_formula_sum   'Se4 F16'
_cell_volume   344.64954596
_cell_formula_units_Z   4
loop_
 _symmetry_equiv_pos_site_id
 _symmetry_equiv_pos_as_xyz
  1  'x, y, z'
loop_
 _atom_site_type_symbol
 _atom_site_label
 _atom_site_symmetry_multiplicity
 _atom_site_fract_x
 _atom_site_fract_y
 _atom_site_fract_z
 _atom_site_occupancy
  F  F0  1  0.16095748  0.66438071  0.04773900  1
  F  F1  1  0.66095748  0.83561929  0.95226100  1
  F  F2  1  0.83904252  0.16438071  0.45226100  1
  F  F3  1  0.33904252  0.33561929  0.54773900  1
  F  F4  1  0.27870974  0.91003835  0.51598250  1
  F  F5  1  0.77870974  0.58996165  0.48401750  1
  F  F6  1  0.72129026  0.41003835  0.98401750  1
  F  F7  1  0.22129026  0.08996165  0.01598250  1
  F  F8  1  0.40713733  0.06846964  0.72282076  1
  F  F9  1  0.90713733  0.43153036  0.27717924  1
  F  F10  1  0.59286267  0.56846964  0.77717924  1
  F  F11  1  0.09286267  0.93153036  0.22282076  1
  F  F12  1  0.01398335  0.84117079  0.69756546  1
  F  F13  1  0.51398335  0.65882921  0.30243454  1
  F  F14  1  0.98601665  0.34117079  0.80243454  1
  F  F15  1  0.48601665  0.15882921  0.19756546  1
  Se  Se16  1  0.34044482  0.90131946  0.12347191  1
  Se  Se17  1  0.84044482  0.59868054  0.87652809  1
  Se  Se18  1  0.65955518  0.40131946  0.37652809  1
  Se  Se19  1  0.15955518  0.09868054  0.62347191  1
