# generated using pymatgen
data_Rb3BiSe3
_symmetry_space_group_name_H-M   'P 1'
_cell_length_a   10.38729525
_cell_length_b   10.38729525
_cell_length_c   10.38729525
_cell_angle_alpha   90.00000000
_cell_angle_beta   90.00000000
_cell_angle_gamma   90.00000000
_symmetry_Int_Tables_number   1
_chemical_formula_structural   Rb3BiSe3
_chemical_formula_sum   'Rb12 Bi4 Se12'
_cell_volume   1120.74659668
_cell_formula_units_Z   4
loop_
 _symmetry_equiv_pos_site_id
 _symmetry_equiv_pos_as_xyz
  1  'x, y, z'
loop_
 _atom_site_type_symbol
 _atom_site_label
 _atom_site_symmetry_multiplicity
 _atom_site_fract_x
 _atom_site_fract_y
 _atom_site_fract_z
 _atom_site_occupancy
  Se  Se0  1  0.21686769  0.60650389  0.49735564  1
  Se  Se1  1  0.49735564  0.21686769  0.60650389  1
  Se  Se2  1  0.60650389  0.49735564  0.21686769  1
  Se  Se3  1  0.89349611  0.50264436  0.71686769  1
  Se  Se4  1  0.99735564  0.28313231  0.39349611  1
  Se  Se5  1  0.39349611  0.99735564  0.28313231  1
  Se  Se6  1  0.00264436  0.78313231  0.10650389  1
  Se  Se7  1  0.50264436  0.71686769  0.89349611  1
  Se  Se8  1  0.10650389  0.00264436  0.78313231  1
  Se  Se9  1  0.71686769  0.89349611  0.50264436  1
  Se  Se10  1  0.78313231  0.10650389  0.00264436  1
  Se  Se11  1  0.28313231  0.39349611  0.99735564  1
  Rb  Rb12  1  0.31989196  0.31989196  0.31989196  1
  Rb  Rb13  1  0.18010804  0.68010804  0.81989196  1
  Rb  Rb14  1  0.81989196  0.18010804  0.68010804  1
  Rb  Rb15  1  0.68010804  0.81989196  0.18010804  1
  Rb  Rb16  1  0.57237176  0.57237176  0.57237176  1
  Rb  Rb17  1  0.92762824  0.42762824  0.07237176  1
  Rb  Rb18  1  0.07237176  0.92762824  0.42762824  1
  Rb  Rb19  1  0.42762824  0.07237176  0.92762824  1
  Rb  Rb20  1  0.81209179  0.81209179  0.81209179  1
  Rb  Rb21  1  0.68790821  0.18790821  0.31209179  1
  Rb  Rb22  1  0.31209179  0.68790821  0.18790821  1
  Rb  Rb23  1  0.18790821  0.31209179  0.68790821  1
  Bi  Bi24  1  0.02977356  0.02977356  0.02977356  1
  Bi  Bi25  1  0.47022644  0.97022644  0.52977356  1
  Bi  Bi26  1  0.52977356  0.47022644  0.97022644  1
  Bi  Bi27  1  0.97022644  0.52977356  0.47022644  1
