# generated using pymatgen
data_TlB3O5
_symmetry_space_group_name_H-M   'P 1'
_cell_length_a   5.42613331
_cell_length_b   8.39407419
_cell_length_c   10.40782644
_cell_angle_alpha   90.00000000
_cell_angle_beta   90.00000000
_cell_angle_gamma   90.00000000
_symmetry_Int_Tables_number   1
_chemical_formula_structural   TlB3O5
_chemical_formula_sum   'Tl4 B12 O20'
_cell_volume   474.04907564
_cell_formula_units_Z   4
loop_
 _symmetry_equiv_pos_site_id
 _symmetry_equiv_pos_as_xyz
  1  'x, y, z'
loop_
 _atom_site_type_symbol
 _atom_site_label
 _atom_site_symmetry_multiplicity
 _atom_site_fract_x
 _atom_site_fract_y
 _atom_site_fract_z
 _atom_site_occupancy
  B  B0  1  0.08952183  0.34890934  0.64460953  1
  B  B1  1  0.58952183  0.15109066  0.35539047  1
  B  B2  1  0.91047817  0.84890934  0.85539047  1
  B  B3  1  0.41047817  0.65109066  0.14460953  1
  B  B4  1  0.70415048  0.61851943  0.95896451  1
  B  B5  1  0.20415048  0.88148057  0.04103549  1
  B  B6  1  0.96545901  0.06446360  0.69171756  1
  B  B7  1  0.46545901  0.43553640  0.30828244  1
  B  B8  1  0.03454099  0.56446360  0.80828244  1
  B  B9  1  0.53454099  0.93553640  0.19171756  1
  B  B10  1  0.29584952  0.11851943  0.54103549  1
  B  B11  1  0.79584952  0.38148057  0.45896451  1
  O  O12  1  0.29989779  0.27438952  0.57914775  1
  O  O13  1  0.85315327  0.50749106  0.89190207  1
  O  O14  1  0.64684673  0.49250894  0.39190207  1
  O  O15  1  0.35315327  0.99250894  0.10809793  1
  O  O16  1  0.56633959  0.77541486  0.20870266  1
  O  O17  1  0.06633959  0.72458514  0.79129734  1
  O  O18  1  0.43366041  0.27541486  0.29129734  1
  O  O19  1  0.93366041  0.22458514  0.70870266  1
  O  O20  1  0.31413893  0.53919394  0.24250186  1
  O  O21  1  0.81413893  0.96080606  0.75749814  1
  O  O22  1  0.68586107  0.03919394  0.25749814  1
  O  O23  1  0.18586107  0.46080606  0.74250186  1
  O  O24  1  0.70010221  0.77438952  0.92085225  1
  O  O25  1  0.20010221  0.72561048  0.07914775  1
  O  O26  1  0.93735986  0.44325860  0.55446930  1
  O  O27  1  0.43735986  0.05674140  0.44553070  1
  O  O28  1  0.06264014  0.94325860  0.94553070  1
  O  O29  1  0.56264014  0.55674140  0.05446930  1
  O  O30  1  0.14684673  0.00749106  0.60809793  1
  O  O31  1  0.79989779  0.22561048  0.42085225  1
  Tl  Tl32  1  0.45978261  0.73188004  0.63685346  1
  Tl  Tl33  1  0.95978261  0.76811996  0.36314654  1
  Tl  Tl34  1  0.54021739  0.23188004  0.86314654  1
  Tl  Tl35  1  0.04021739  0.26811996  0.13685346  1
