# generated using pymatgen
data_Sr(NiP)2
_symmetry_space_group_name_H-M   'P 1'
_cell_length_a   3.95044818
_cell_length_b   8.17518198
_cell_length_c   8.17518198
_cell_angle_alpha   80.39478208
_cell_angle_beta   76.01828398
_cell_angle_gamma   76.01828395
_symmetry_Int_Tables_number   1
_chemical_formula_structural   Sr(NiP)2
_chemical_formula_sum   'Sr3 Ni6 P6'
_cell_volume   246.95458021
_cell_formula_units_Z   3
loop_
 _symmetry_equiv_pos_site_id
 _symmetry_equiv_pos_as_xyz
  1  'x, y, z'
loop_
 _atom_site_type_symbol
 _atom_site_label
 _atom_site_symmetry_multiplicity
 _atom_site_fract_x
 _atom_site_fract_y
 _atom_site_fract_z
 _atom_site_occupancy
  P  P0  1  0.33559561  0.32363644  0.00517233  1
  P  P1  1  0.66440439  0.67636356  0.99482767  1
  P  P2  1  0.66440439  0.99482767  0.67636356  1
  P  P3  1  0.00000000  0.38113079  0.61886921  1
  P  P4  1  0.33559561  0.00517233  0.32363644  1
  P  P5  1  0.00000000  0.61886921  0.38113079  1
  Ni  Ni6  1  0.15664983  0.58255856  0.10414178  1
  Ni  Ni7  1  0.50000000  0.27065757  0.72934243  1
  Ni  Ni8  1  0.50000000  0.72934243  0.27065757  1
  Ni  Ni9  1  0.15664983  0.10414178  0.58255856  1
  Ni  Ni10  1  0.84335017  0.41744144  0.89585822  1
  Ni  Ni11  1  0.84335017  0.89585822  0.41744144  1
  Sr  Sr12  1  0.68345211  0.31654789  0.31654789  1
  Sr  Sr13  1  0.31654789  0.68345211  0.68345211  1
  Sr  Sr14  1  0.00000000  0.00000000  0.00000000  1
