# generated using pymatgen
data_Li10V3Cr5O16
_symmetry_space_group_name_H-M   'P 1'
_cell_length_a   6.05197387
_cell_length_b   6.01278467
_cell_length_c   9.85111271
_cell_angle_alpha   89.82590590
_cell_angle_beta   90.00003649
_cell_angle_gamma   58.97752645
_symmetry_Int_Tables_number   1
_chemical_formula_structural   Li10V3Cr5O16
_chemical_formula_sum   'Li10 V3 Cr5 O16'
_cell_volume   307.19804523
_cell_formula_units_Z   1
loop_
 _symmetry_equiv_pos_site_id
 _symmetry_equiv_pos_as_xyz
  1  'x, y, z'
loop_
 _atom_site_type_symbol
 _atom_site_label
 _atom_site_symmetry_multiplicity
 _atom_site_fract_x
 _atom_site_fract_y
 _atom_site_fract_z
 _atom_site_occupancy
  Li  Li0  1  0.02102560  0.99102255  0.98765671  1
  Li  Li1  1  0.35537896  0.32107846  0.77423128  1
  Li  Li2  1  0.62547709  0.17693485  0.55868010  1
  Li  Li3  1  0.21532203  0.19067042  0.55438503  1
  Li  Li4  1  0.19661050  0.61154288  0.56050169  1
  Li  Li5  1  0.81601521  0.38659142  0.05805465  1
  Li  Li6  1  0.68011417  0.68307355  0.27519684  1
  Li  Li7  1  0.41305073  0.80557132  0.05234865  1
  Li  Li8  1  0.80999626  0.81450897  0.05788033  1
  Li  Li9  1  0.01558522  0.00965877  0.48594637  1
  V  V10  1  0.66388475  0.18749610  0.28904022  1
  V  V11  1  0.18807653  0.66385165  0.28835306  1
  V  V12  1  0.84948506  0.82410098  0.78894180  1
  Cr  Cr13  1  0.17770091  0.17640097  0.28614057  1
  Cr  Cr14  1  0.34828253  0.33718881  0.02713410  1
  Cr  Cr15  1  0.84960299  0.32950837  0.78664381  1
  Cr  Cr16  1  0.68290883  0.66721791  0.52874265  1
  Cr  Cr17  1  0.35601018  0.82290061  0.78577228  1
  O  O18  1  0.18393277  0.15587496  0.90558019  1
  O  O19  1  0.49365799  0.02686794  0.16222580  1
  O  O20  1  0.68694278  0.16782564  0.91320207  1
  O  O21  1  0.33771219  0.33302248  0.40777950  1
  O  O22  1  0.03170508  0.49134815  0.15984117  1
  O  O23  1  0.49643093  0.49619971  0.15510782  1
  O  O24  1  0.85084477  0.34331090  0.40617386  1
  O  O25  1  0.19522590  0.66135226  0.90787760  1
  O  O26  1  0.53008650  0.50345457  0.66186427  1
  O  O27  1  0.34753778  0.84708009  0.40872962  1
  O  O28  1  0.99181482  0.49514937  0.66107918  1
  O  O29  1  0.67809659  0.65375768  0.90286183  1
  O  O30  1  0.51746896  0.97222726  0.66245292  1
  O  O31  1  0.84658774  0.84466368  0.41638374  1
  O  O32  1  0.02361838  0.99777174  0.67575828  1
  O  O33  1  0.00965027  0.01471899  0.17774102  1
