# generated using pymatgen
data_Te4MoBr
_symmetry_space_group_name_H-M   'P 1'
_cell_length_a   6.90304213
_cell_length_b   8.36246210
_cell_length_c   8.37216684
_cell_angle_alpha   115.19864656
_cell_angle_beta   102.79404092
_cell_angle_gamma   100.78379619
_symmetry_Int_Tables_number   1
_chemical_formula_structural   Te4MoBr
_chemical_formula_sum   'Te8 Mo2 Br2'
_cell_volume   404.18119945
_cell_formula_units_Z   2
loop_
 _symmetry_equiv_pos_site_id
 _symmetry_equiv_pos_as_xyz
  1  'x, y, z'
loop_
 _atom_site_type_symbol
 _atom_site_label
 _atom_site_symmetry_multiplicity
 _atom_site_fract_x
 _atom_site_fract_y
 _atom_site_fract_z
 _atom_site_occupancy
  Br  Br0  1  0.74684496  0.59133576  0.41938104  1
  Br  Br1  1  0.25315504  0.40866424  0.58061896  1
  Mo  Mo2  1  0.78157763  0.99992414  0.00055683  1
  Mo  Mo3  1  0.21842237  0.00007586  0.99944317  1
  Te  Te4  1  0.87880318  0.68008889  0.81906617  1
  Te  Te5  1  0.03460241  0.89256142  0.21579946  1
  Te  Te6  1  0.96539759  0.10743858  0.78420054  1
  Te  Te7  1  0.53618485  0.22525643  0.94252790  1
  Te  Te8  1  0.61315392  0.14550064  0.30158124  1
  Te  Te9  1  0.38684608  0.85449936  0.69841876  1
  Te  Te10  1  0.12119682  0.31991111  0.18093383  1
  Te  Te11  1  0.46381515  0.77474357  0.05747210  1
