# generated using pymatgen
data_La3Br6N
_symmetry_space_group_name_H-M   'P 1'
_cell_length_a   11.30568721
_cell_length_b   12.08086718
_cell_length_c   17.37526814
_cell_angle_alpha   90.00000000
_cell_angle_beta   90.00000000
_cell_angle_gamma   90.00000000
_symmetry_Int_Tables_number   1
_chemical_formula_structural   La3Br6N
_chemical_formula_sum   'La24 Br48 N8'
_cell_volume   2373.15765738
_cell_formula_units_Z   8
loop_
 _symmetry_equiv_pos_site_id
 _symmetry_equiv_pos_as_xyz
  1  'x, y, z'
loop_
 _atom_site_type_symbol
 _atom_site_label
 _atom_site_symmetry_multiplicity
 _atom_site_fract_x
 _atom_site_fract_y
 _atom_site_fract_z
 _atom_site_occupancy
  N  N0  1  0.54686876  0.09144676  0.94046959  1
  N  N1  1  0.04686876  0.40855324  0.05953041  1
  N  N2  1  0.45313124  0.59144676  0.55953041  1
  N  N3  1  0.95313124  0.90855324  0.44046959  1
  N  N4  1  0.45313124  0.90855324  0.05953041  1
  N  N5  1  0.95313124  0.59144676  0.94046959  1
  N  N6  1  0.54686876  0.40855324  0.44046959  1
  N  N7  1  0.04686876  0.09144676  0.55953041  1
  Br  Br8  1  0.25634654  0.78414374  0.45424217  1
  Br  Br9  1  0.75634654  0.71585626  0.54575783  1
  Br  Br10  1  0.74365346  0.28414374  0.04575783  1
  Br  Br11  1  0.24365346  0.21585626  0.95424217  1
  Br  Br12  1  0.74365346  0.21585626  0.54575783  1
  Br  Br13  1  0.24365346  0.28414374  0.45424217  1
  Br  Br14  1  0.25634654  0.71585626  0.95424217  1
  Br  Br15  1  0.75634654  0.78414374  0.04575783  1
  Br  Br16  1  0.36771073  0.06424497  0.33866558  1
  Br  Br17  1  0.86771073  0.43575503  0.66133442  1
  Br  Br18  1  0.63228927  0.56424497  0.16133442  1
  Br  Br19  1  0.13228927  0.93575503  0.83866558  1
  Br  Br20  1  0.63228927  0.93575503  0.66133442  1
  Br  Br21  1  0.13228927  0.56424497  0.33866558  1
  Br  Br22  1  0.36771073  0.43575503  0.83866558  1
  Br  Br23  1  0.86771073  0.06424497  0.16133442  1
  Br  Br24  1  0.10516647  0.91733918  0.27535171  1
  Br  Br25  1  0.60516647  0.58266082  0.72464829  1
  Br  Br26  1  0.89483353  0.41733918  0.22464829  1
  Br  Br27  1  0.39483353  0.08266082  0.77535171  1
  Br  Br28  1  0.89483353  0.08266082  0.72464829  1
  Br  Br29  1  0.39483353  0.41733918  0.27535171  1
  Br  Br30  1  0.10516647  0.58266082  0.77535171  1
  Br  Br31  1  0.60516647  0.91733918  0.22464829  1
  Br  Br32  1  0.64340929  0.97019233  0.44489231  1
  Br  Br33  1  0.14340929  0.52980767  0.55510769  1
  Br  Br34  1  0.35659071  0.47019233  0.05510769  1
  Br  Br35  1  0.85659071  0.02980767  0.94489231  1
  Br  Br36  1  0.35659071  0.02980767  0.55510769  1
  Br  Br37  1  0.85659071  0.47019233  0.44489231  1
  Br  Br38  1  0.64340929  0.52980767  0.94489231  1
  Br  Br39  1  0.14340929  0.97019233  0.05510769  1
  Br  Br40  1  0.16301941  0.21694635  0.18884535  1
  Br  Br41  1  0.66301941  0.28305365  0.81115465  1
  Br  Br42  1  0.83698059  0.71694635  0.31115465  1
  Br  Br43  1  0.33698059  0.78305365  0.68884535  1
  Br  Br44  1  0.83698059  0.78305365  0.81115465  1
  Br  Br45  1  0.33698059  0.71694635  0.18884535  1
  Br  Br46  1  0.16301941  0.28305365  0.68884535  1
  Br  Br47  1  0.66301941  0.21694635  0.31115465  1
  Br  Br48  1  0.53372559  0.68378822  0.37686054  1
  Br  Br49  1  0.03372559  0.81621178  0.62313946  1
  Br  Br50  1  0.46627441  0.18378822  0.12313946  1
  Br  Br51  1  0.96627441  0.31621178  0.87686054  1
  Br  Br52  1  0.46627441  0.31621178  0.62313946  1
  Br  Br53  1  0.96627441  0.18378822  0.37686054  1
  Br  Br54  1  0.53372559  0.81621178  0.87686054  1
  Br  Br55  1  0.03372559  0.68378822  0.12313946  1
  La  La56  1  0.13690932  0.01942672  0.44194196  1
  La  La57  1  0.63690932  0.48057328  0.55805804  1
  La  La58  1  0.86309068  0.51942672  0.05805804  1
  La  La59  1  0.36309068  0.98057328  0.94194196  1
  La  La60  1  0.86309068  0.98057328  0.55805804  1
  La  La61  1  0.36309068  0.51942672  0.44194196  1
  La  La62  1  0.13690932  0.48057328  0.94194196  1
  La  La63  1  0.63690932  0.01942672  0.05805804  1
  La  La64  1  0.34971804  0.96073358  0.17229719  1
  La  La65  1  0.84971804  0.53926642  0.82770281  1
  La  La66  1  0.65028196  0.46073358  0.32770281  1
  La  La67  1  0.15028196  0.03926642  0.67229719  1
  La  La68  1  0.65028196  0.03926642  0.82770281  1
  La  La69  1  0.15028196  0.46073358  0.17229719  1
  La  La70  1  0.34971804  0.53926642  0.67229719  1
  La  La71  1  0.84971804  0.96073358  0.32770281  1
  La  La72  1  0.00953188  0.22237114  0.05015083  1
  La  La73  1  0.50953188  0.27762886  0.94984917  1
  La  La74  1  0.99046812  0.72237114  0.44984917  1
  La  La75  1  0.49046812  0.77762886  0.55015083  1
  La  La76  1  0.99046812  0.77762886  0.94984917  1
  La  La77  1  0.49046812  0.72237114  0.05015083  1
  La  La78  1  0.00953188  0.27762886  0.55015083  1
  La  La79  1  0.50953188  0.22237114  0.44984917  1
