# generated using pymatgen
data_LaNb7O12
_symmetry_space_group_name_H-M   'P 1'
_cell_length_a   9.32203181
_cell_length_b   10.47012119
_cell_length_c   10.92651178
_cell_angle_alpha   104.35857664
_cell_angle_beta   90.00000000
_cell_angle_gamma   90.00000000
_symmetry_Int_Tables_number   1
_chemical_formula_structural   LaNb7O12
_chemical_formula_sum   'La4 Nb28 O48'
_cell_volume   1033.14490498
_cell_formula_units_Z   4
loop_
 _symmetry_equiv_pos_site_id
 _symmetry_equiv_pos_as_xyz
  1  'x, y, z'
loop_
 _atom_site_type_symbol
 _atom_site_label
 _atom_site_symmetry_multiplicity
 _atom_site_fract_x
 _atom_site_fract_y
 _atom_site_fract_z
 _atom_site_occupancy
  O  O0  1  0.22812584  0.57872008  0.71878486  1
  O  O1  1  0.72812584  0.92127992  0.28121514  1
  O  O2  1  0.77187416  0.42127992  0.28121514  1
  O  O3  1  0.27187416  0.07872008  0.71878486  1
  O  O4  1  0.26415584  0.95412874  0.15181468  1
  O  O5  1  0.76415584  0.54587126  0.84818532  1
  O  O6  1  0.73584416  0.04587126  0.84818532  1
  O  O7  1  0.23584416  0.45412874  0.15181468  1
  O  O8  1  0.27036329  0.81334291  0.58637519  1
  O  O9  1  0.77036329  0.68665709  0.41362481  1
  O  O10  1  0.72963671  0.18665709  0.41362481  1
  O  O11  1  0.22963671  0.31334291  0.58637519  1
  O  O12  1  0.23151857  0.72057469  0.29153710  1
  O  O13  1  0.73151857  0.77942531  0.70846290  1
  O  O14  1  0.76848143  0.27942531  0.70846290  1
  O  O15  1  0.26848143  0.22057469  0.29153710  1
  O  O16  1  0.25249805  0.01916024  0.42361739  1
  O  O17  1  0.75249805  0.48083976  0.57638261  1
  O  O18  1  0.74750195  0.98083976  0.57638261  1
  O  O19  1  0.24750195  0.51916024  0.42361739  1
  O  O20  1  0.74150024  0.12158801  0.13697455  1
  O  O21  1  0.24150024  0.37841199  0.86302545  1
  O  O22  1  0.25849976  0.87841199  0.86302545  1
  O  O23  1  0.75849976  0.62158801  0.13697455  1
  O  O24  1  0.23342567  0.18267276  0.00412829  1
  O  O25  1  0.73342567  0.31732724  0.99587171  1
  O  O26  1  0.76657433  0.81732724  0.99587171  1
  O  O27  1  0.26657433  0.68267276  0.00412829  1
  O  O28  1  0.00000000  0.50000000  0.00000000  1
  O  O29  1  0.50000000  0.00000000  0.00000000  1
  O  O30  1  0.00047339  0.13836420  0.56931102  1
  O  O31  1  0.50047339  0.36163580  0.43068898  1
  O  O32  1  0.99952661  0.86163580  0.43068898  1
  O  O33  1  0.49952661  0.63836420  0.56931102  1
  O  O34  1  0.00000000  0.00000000  0.00000000  1
  O  O35  1  0.50000000  0.50000000  0.00000000  1
  O  O36  1  0.00833790  0.29296757  0.15131264  1
  O  O37  1  0.50833790  0.20703243  0.84868736  1
  O  O38  1  0.99166210  0.70703243  0.84868736  1
  O  O39  1  0.49166210  0.79296757  0.15131264  1
  O  O40  1  0.00457458  0.21506712  0.86094296  1
  O  O41  1  0.50457458  0.28493288  0.13905704  1
  O  O42  1  0.99542542  0.78493288  0.13905704  1
  O  O43  1  0.49542542  0.71506712  0.86094296  1
  O  O44  1  0.99811303  0.35700967  0.42972067  1
  O  O45  1  0.49811303  0.14299033  0.57027933  1
  O  O46  1  0.00188697  0.64299033  0.57027933  1
  O  O47  1  0.50188697  0.85700967  0.42972067  1
  Nb  Nb48  1  0.11922662  0.18438354  0.41939918  1
  Nb  Nb49  1  0.61922662  0.31561646  0.58060082  1
  Nb  Nb50  1  0.88077338  0.81561646  0.58060082  1
  Nb  Nb51  1  0.38077338  0.68438354  0.41939918  1
  Nb  Nb52  1  0.11623249  0.90758695  0.28016839  1
  Nb  Nb53  1  0.61623249  0.59241305  0.71983161  1
  Nb  Nb54  1  0.88376751  0.09241305  0.71983161  1
  Nb  Nb55  1  0.38376751  0.40758695  0.28016839  1
  Nb  Nb56  1  0.12574870  0.11754240  0.15518571  1
  Nb  Nb57  1  0.62574870  0.38245760  0.84481429  1
  Nb  Nb58  1  0.87425130  0.88245760  0.84481429  1
  Nb  Nb59  1  0.37425130  0.61754240  0.15518571  1
  Nb  Nb60  1  0.13434455  0.96825327  0.58785033  1
  Nb  Nb61  1  0.63434455  0.53174673  0.41214967  1
  Nb  Nb62  1  0.86565545  0.03174673  0.41214967  1
  Nb  Nb63  1  0.36565545  0.46825327  0.58785033  1
  Nb  Nb64  1  0.87249541  0.96127521  0.14908642  1
  Nb  Nb65  1  0.37249541  0.53872479  0.85091358  1
  Nb  Nb66  1  0.12750459  0.03872479  0.85091358  1
  Nb  Nb67  1  0.62750459  0.46127521  0.14908642  1
  Nb  Nb68  1  0.12368668  0.76818874  0.71766099  1
  Nb  Nb69  1  0.62368668  0.73181126  0.28233901  1
  Nb  Nb70  1  0.87631332  0.23181126  0.28233901  1
  Nb  Nb71  1  0.37631332  0.26818874  0.71766099  1
  Nb  Nb72  1  0.11379846  0.33925373  0.99981614  1
  Nb  Nb73  1  0.61379846  0.16074627  0.00018386  1
  Nb  Nb74  1  0.88620154  0.66074627  0.00018386  1
  Nb  Nb75  1  0.38620154  0.83925373  0.99981614  1
  La  La76  1  0.48279125  0.04839296  0.33688557  1
  La  La77  1  0.98279125  0.45160704  0.66311443  1
  La  La78  1  0.51720875  0.95160704  0.66311443  1
  La  La79  1  0.01720875  0.54839296  0.33688557  1
