# generated using pymatgen
data_BaTe2F10
_symmetry_space_group_name_H-M   'P 1'
_cell_length_a   4.95244157
_cell_length_b   9.16643377
_cell_length_c   10.48028921
_cell_angle_alpha   111.66245524
_cell_angle_beta   90.00000000
_cell_angle_gamma   105.67260025
_symmetry_Int_Tables_number   1
_chemical_formula_structural   BaTe2F10
_chemical_formula_sum   'Ba2 Te4 F20'
_cell_volume   423.07349952
_cell_formula_units_Z   2
loop_
 _symmetry_equiv_pos_site_id
 _symmetry_equiv_pos_as_xyz
  1  'x, y, z'
loop_
 _atom_site_type_symbol
 _atom_site_label
 _atom_site_symmetry_multiplicity
 _atom_site_fract_x
 _atom_site_fract_y
 _atom_site_fract_z
 _atom_site_occupancy
  F  F0  1  0.44806529  0.40498042  0.74444767  1
  F  F1  1  0.04308487  0.59501958  0.75555233  1
  F  F2  1  0.55193471  0.59501958  0.25555233  1
  F  F3  1  0.95691513  0.40498042  0.24444767  1
  F  F4  1  0.81174260  0.21353740  0.65579987  1
  F  F5  1  0.59820520  0.78646260  0.84420013  1
  F  F6  1  0.50718043  0.14776252  0.87792881  1
  F  F7  1  0.35941792  0.85223748  0.62207119  1
  F  F8  1  0.49281957  0.85223748  0.12207119  1
  F  F9  1  0.64058208  0.14776252  0.37792881  1
  F  F10  1  0.05789102  0.33556664  0.96279270  1
  F  F11  1  0.72232438  0.66443336  0.53720730  1
  F  F12  1  0.94210898  0.66443336  0.03720730  1
  F  F13  1  0.27767562  0.33556664  0.46279270  1
  F  F14  1  0.82157378  0.12230887  0.05289322  1
  F  F15  1  0.69926491  0.87769113  0.44710678  1
  F  F16  1  0.17842622  0.87769113  0.94710678  1
  F  F17  1  0.30073509  0.12230887  0.55289322  1
  F  F18  1  0.40179480  0.21353740  0.15579987  1
  F  F19  1  0.18825740  0.78646260  0.34420013  1
  Te  Te20  1  0.60264546  0.31651550  0.56833779  1
  Te  Te21  1  0.28612996  0.68348450  0.93166221  1
  Te  Te22  1  0.39735454  0.68348450  0.43166221  1
  Te  Te23  1  0.71387004  0.31651550  0.06833779  1
  Ba  Ba24  1  0.95717169  0.00000000  0.75000000  1
  Ba  Ba25  1  0.04282831  0.00000000  0.25000000  1
