# generated using pymatgen
data_TePbF6
_symmetry_space_group_name_H-M   'P 1'
_cell_length_a   4.75923885
_cell_length_b   8.69164516
_cell_length_c   13.06667162
_cell_angle_alpha   90.00000000
_cell_angle_beta   90.00000000
_cell_angle_gamma   103.30892672
_symmetry_Int_Tables_number   1
_chemical_formula_structural   TePbF6
_chemical_formula_sum   'Te4 Pb4 F24'
_cell_volume   525.99442017
_cell_formula_units_Z   4
loop_
 _symmetry_equiv_pos_site_id
 _symmetry_equiv_pos_as_xyz
  1  'x, y, z'
loop_
 _atom_site_type_symbol
 _atom_site_label
 _atom_site_symmetry_multiplicity
 _atom_site_fract_x
 _atom_site_fract_y
 _atom_site_fract_z
 _atom_site_occupancy
  F  F0  1  0.88944245  0.63595491  0.67168664  1
  F  F1  1  0.11055755  0.86404509  0.17168664  1
  F  F2  1  0.11055755  0.36404509  0.32831336  1
  F  F3  1  0.88944245  0.13595491  0.82831336  1
  F  F4  1  0.25174278  0.66240207  0.81299035  1
  F  F5  1  0.74825722  0.83759793  0.31299035  1
  F  F6  1  0.74825722  0.33759793  0.18700965  1
  F  F7  1  0.25174278  0.16240207  0.68700965  1
  F  F8  1  0.77955610  0.08439039  0.46983143  1
  F  F9  1  0.22044390  0.41560961  0.96983143  1
  F  F10  1  0.22044390  0.91560961  0.53016857  1
  F  F11  1  0.77955610  0.58439039  0.03016857  1
  F  F12  1  0.67408925  0.45552661  0.39486261  1
  F  F13  1  0.32591075  0.04447339  0.89486261  1
  F  F14  1  0.32591075  0.54447339  0.60513739  1
  F  F15  1  0.67408925  0.95552661  0.10513739  1
  F  F16  1  0.80698275  0.84365936  0.88245153  1
  F  F17  1  0.19301725  0.65634064  0.38245153  1
  F  F18  1  0.19301725  0.15634064  0.11754847  1
  F  F19  1  0.80698275  0.34365936  0.61754847  1
  F  F20  1  0.70324307  0.93592697  0.68400950  1
  F  F21  1  0.29675693  0.56407303  0.18400950  1
  F  F22  1  0.29675693  0.06407303  0.31599050  1
  F  F23  1  0.70324307  0.43592697  0.81599050  1
  Te  Te24  1  0.05831647  0.97159546  0.77743298  1
  Te  Te25  1  0.94168353  0.52840454  0.27743298  1
  Te  Te26  1  0.94168353  0.02840454  0.22256702  1
  Te  Te27  1  0.05831647  0.47159546  0.72256702  1
  Pb  Pb28  1  0.63739232  0.80807025  0.50500025  1
  Pb  Pb29  1  0.36260768  0.69192975  0.00500025  1
  Pb  Pb30  1  0.36260768  0.19192975  0.49499975  1
  Pb  Pb31  1  0.63739232  0.30807025  0.99499975  1
