# generated using pymatgen
data_Li3V4O11F
_symmetry_space_group_name_H-M   'P 1'
_cell_length_a   5.21776154
_cell_length_b   8.34440665
_cell_length_c   5.16222035
_cell_angle_alpha   83.90369296
_cell_angle_beta   100.94972719
_cell_angle_gamma   86.99051651
_symmetry_Int_Tables_number   1
_chemical_formula_structural   Li3V4O11F
_chemical_formula_sum   'Li3 V4 O11 F1'
_cell_volume   218.80991736
_cell_formula_units_Z   1
loop_
 _symmetry_equiv_pos_site_id
 _symmetry_equiv_pos_as_xyz
  1  'x, y, z'
loop_
 _atom_site_type_symbol
 _atom_site_label
 _atom_site_symmetry_multiplicity
 _atom_site_fract_x
 _atom_site_fract_y
 _atom_site_fract_z
 _atom_site_occupancy
  Li  Li0  1  0.37770558  0.86236130  0.86177731  1
  Li  Li1  1  0.68402606  0.78757995  0.41146536  1
  Li  Li2  1  0.91455743  0.37380798  0.35254345  1
  V  V3  1  0.09534207  0.97717930  0.26299561  1
  V  V4  1  0.30804403  0.55663470  0.17207210  1
  V  V5  1  0.59069519  0.45176787  0.73096233  1
  V  V6  1  0.81625937  0.03823043  0.69750243  1
  O  O7  1  0.01554808  0.51012303  0.02651244  1
  O  O8  1  0.01248477  0.86979824  0.61642711  1
  O  O9  1  0.23193749  0.06147404  0.01650871  1
  O  O10  1  0.29544128  0.43212180  0.50768952  1
  O  O11  1  0.27798820  0.75681167  0.25506791  1
  O  O12  1  0.47645024  0.62493381  0.89211068  1
  O  O13  1  0.51801675  0.98732797  0.54720153  1
  O  O14  1  0.74920646  0.25124638  0.76140317  1
  O  O15  1  0.73465660  0.55450203  0.50033167  1
  O  O16  1  0.79527218  0.93652607  0.05191808  1
  O  O17  1  0.97649487  0.14252461  0.41260191  1
  F  F18  1  0.53755337  0.36173180  0.12266367  1
