# generated using pymatgen
data_LiPO3
_symmetry_space_group_name_H-M   'P 1'
_cell_length_a   5.41133117
_cell_length_b   8.13152441
_cell_length_c   17.30412310
_cell_angle_alpha   90.00000000
_cell_angle_beta   90.00000000
_cell_angle_gamma   99.37435672
_symmetry_Int_Tables_number   1
_chemical_formula_structural   LiPO3
_chemical_formula_sum   'Li12 P12 O36'
_cell_volume   751.25377802
_cell_formula_units_Z   12
loop_
 _symmetry_equiv_pos_site_id
 _symmetry_equiv_pos_as_xyz
  1  'x, y, z'
loop_
 _atom_site_type_symbol
 _atom_site_label
 _atom_site_symmetry_multiplicity
 _atom_site_fract_x
 _atom_site_fract_y
 _atom_site_fract_z
 _atom_site_occupancy
  Li  Li0  1  0.80784201  0.72547475  0.81028892  1
  Li  Li1  1  0.69215799  0.77452525  0.31028892  1
  Li  Li2  1  0.19215799  0.27452525  0.18971108  1
  Li  Li3  1  0.30784201  0.22547475  0.68971108  1
  Li  Li4  1  0.79590779  0.87103264  0.97899962  1
  Li  Li5  1  0.70409221  0.62896736  0.47899962  1
  Li  Li6  1  0.20409221  0.12896736  0.02100038  1
  Li  Li7  1  0.29590779  0.37103264  0.52100038  1
  Li  Li8  1  0.76169291  0.93753135  0.15659381  1
  Li  Li9  1  0.73830709  0.56246865  0.65659381  1
  Li  Li10  1  0.23830709  0.06246865  0.84340619  1
  Li  Li11  1  0.26169291  0.43753135  0.34340619  1
  O  O12  1  0.04649782  0.35462421  0.43323592  1
  O  O13  1  0.45350218  0.14537579  0.93323592  1
  O  O14  1  0.95350218  0.64537579  0.56676408  1
  O  O15  1  0.54649782  0.85462421  0.06676408  1
  O  O16  1  0.12628314  0.80596070  0.86957625  1
  O  O17  1  0.37371686  0.69403930  0.36957625  1
  O  O18  1  0.87371686  0.19403930  0.13042375  1
  O  O19  1  0.62628314  0.30596070  0.63042375  1
  O  O20  1  0.07684402  0.24664837  0.60349602  1
  O  O21  1  0.42315598  0.25335163  0.10349602  1
  O  O22  1  0.92315598  0.75335163  0.39650398  1
  O  O23  1  0.57684402  0.74664837  0.89650398  1
  O  O24  1  0.27461641  0.84872551  0.49120831  1
  O  O25  1  0.22538359  0.65127449  0.99120831  1
  O  O26  1  0.72538359  0.15127449  0.50879169  1
  O  O27  1  0.77461641  0.34872551  0.00879169  1
  O  O28  1  0.21772132  0.64801659  0.13245006  1
  O  O29  1  0.28227868  0.85198341  0.63245006  1
  O  O30  1  0.78227868  0.35198341  0.86754994  1
  O  O31  1  0.71772132  0.14801659  0.36754994  1
  O  O32  1  0.06986886  0.46791590  0.24360468  1
  O  O33  1  0.43013114  0.03208410  0.74360468  1
  O  O34  1  0.93013114  0.53208410  0.75639532  1
  O  O35  1  0.56986886  0.96791590  0.25639532  1
  O  O36  1  0.08307970  0.89532543  0.05973555  1
  O  O37  1  0.41692030  0.60467457  0.55973555  1
  O  O38  1  0.91692030  0.10467457  0.94026445  1
  O  O39  1  0.58307970  0.39532543  0.44026445  1
  O  O40  1  0.12074548  0.26132311  0.78233405  1
  O  O41  1  0.37925452  0.23867689  0.28233405  1
  O  O42  1  0.87925452  0.73867689  0.21766595  1
  O  O43  1  0.62074548  0.76132311  0.71766595  1
  O  O44  1  0.26920195  0.99246617  0.36794295  1
  O  O45  1  0.23079805  0.50753383  0.86794295  1
  O  O46  1  0.73079805  0.00753383  0.63205705  1
  O  O47  1  0.76920195  0.49246617  0.13205705  1
  P  P48  1  0.70199789  0.30618489  0.09840943  1
  P  P49  1  0.79800211  0.19381511  0.59840943  1
  P  P50  1  0.29800211  0.69381511  0.90159057  1
  P  P51  1  0.20199789  0.80618489  0.40159057  1
  P  P52  1  0.77446111  0.27969408  0.43677311  1
  P  P53  1  0.72553889  0.22030592  0.93677311  1
  P  P54  1  0.22553889  0.72030592  0.56322689  1
  P  P55  1  0.27446111  0.77969408  0.06322689  1
  P  P56  1  0.48184728  0.08948624  0.31069626  1
  P  P57  1  0.01815272  0.41051376  0.81069626  1
  P  P58  1  0.51815272  0.91051376  0.68930374  1
  P  P59  1  0.98184728  0.58948624  0.18930374  1
