# generated using pymatgen
data_Te2O3F2
_symmetry_space_group_name_H-M   'P 1'
_cell_length_a   5.34431103
_cell_length_b   6.31248619
_cell_length_c   7.12691869
_cell_angle_alpha   99.45612018
_cell_angle_beta   108.96533889
_cell_angle_gamma   91.95031360
_symmetry_Int_Tables_number   1
_chemical_formula_structural   Te2O3F2
_chemical_formula_sum   'Te4 O6 F4'
_cell_volume   223.30422896
_cell_formula_units_Z   2
loop_
 _symmetry_equiv_pos_site_id
 _symmetry_equiv_pos_as_xyz
  1  'x, y, z'
loop_
 _atom_site_type_symbol
 _atom_site_label
 _atom_site_symmetry_multiplicity
 _atom_site_fract_x
 _atom_site_fract_y
 _atom_site_fract_z
 _atom_site_occupancy
  O  O0  1  0.88420609  0.65342765  0.06536843  1
  O  O1  1  0.11579391  0.34657235  0.93463157  1
  O  O2  1  0.45974076  0.63566216  0.28140063  1
  O  O3  1  0.54025924  0.36433784  0.71859937  1
  O  O4  1  0.64666053  0.17790589  0.06580602  1
  O  O5  1  0.35333947  0.82209411  0.93419398  1
  F  F6  1  0.66701556  0.93857069  0.70896823  1
  F  F7  1  0.33298444  0.06142931  0.29103177  1
  F  F8  1  0.08191432  0.70596103  0.46193545  1
  F  F9  1  0.91808568  0.29403897  0.53806455  1
  Te  Te10  1  0.59782186  0.90302734  0.20347885  1
  Te  Te11  1  0.40217814  0.09697266  0.79652115  1
  Te  Te12  1  0.87645004  0.51579548  0.76377652  1
  Te  Te13  1  0.12354996  0.48420452  0.23622348  1
