# generated using pymatgen
data_La(SiP3)2
_symmetry_space_group_name_H-M   'P 1'
_cell_length_a   10.20243324
_cell_length_b   10.45976225
_cell_length_c   15.06258463
_cell_angle_alpha   90.00000000
_cell_angle_beta   109.79574712
_cell_angle_gamma   90.00000000
_symmetry_Int_Tables_number   1
_chemical_formula_structural   La(SiP3)2
_chemical_formula_sum   'La8 Si16 P48'
_cell_volume   1512.41602806
_cell_formula_units_Z   8
loop_
 _symmetry_equiv_pos_site_id
 _symmetry_equiv_pos_as_xyz
  1  'x, y, z'
loop_
 _atom_site_type_symbol
 _atom_site_label
 _atom_site_symmetry_multiplicity
 _atom_site_fract_x
 _atom_site_fract_y
 _atom_site_fract_z
 _atom_site_occupancy
  Si  Si0  1  0.74138422  0.17736636  0.16118136  1
  Si  Si1  1  0.48750682  0.71840572  0.33006247  1
  Si  Si2  1  0.51249318  0.21840572  0.66993753  1
  Si  Si3  1  0.84255566  0.71840572  0.33006247  1
  Si  Si4  1  0.15744434  0.21840572  0.66993753  1
  Si  Si5  1  0.49327963  0.88509756  0.64339459  1
  Si  Si6  1  0.50672037  0.38509756  0.35660541  1
  Si  Si7  1  0.15011495  0.88509756  0.64339459  1
  Si  Si8  1  0.84988505  0.38509756  0.35660541  1
  Si  Si9  1  0.25861578  0.67736636  0.83881864  1
  Si  Si10  1  0.41979713  0.17736636  0.16118136  1
  Si  Si11  1  0.58020287  0.67736636  0.83881864  1
  Si  Si12  1  0.10420887  0.35842452  0.86718969  1
  Si  Si13  1  0.89579113  0.85842452  0.13281031  1
  Si  Si14  1  0.76298082  0.35842452  0.86718969  1
  Si  Si15  1  0.23701918  0.85842452  0.13281031  1
  P  P16  1  0.39846066  0.38545680  0.46661986  1
  P  P17  1  0.72680905  0.40324542  0.45361810  1
  P  P18  1  0.27319095  0.90324542  0.54638190  1
  P  P19  1  0.54220057  0.27827841  0.08440114  1
  P  P20  1  0.45779943  0.77827841  0.91559886  1
  P  P21  1  0.42244313  0.35622231  0.84488627  1
  P  P22  1  0.57755687  0.85622231  0.15511373  1
  P  P23  1  0.65612341  0.85296610  0.31224682  1
  P  P24  1  0.00872395  0.35375473  0.70839775  1
  P  P25  1  0.99127605  0.85375473  0.29160225  1
  P  P26  1  0.69967380  0.35375473  0.70839775  1
  P  P27  1  0.30032620  0.85375473  0.29160225  1
  P  P28  1  0.17105889  0.17170999  0.94138786  1
  P  P29  1  0.82894111  0.67170999  0.05861214  1
  P  P30  1  0.77032897  0.17170999  0.94138786  1
  P  P31  1  0.22967103  0.67170999  0.05861214  1
  P  P32  1  0.86090160  0.17792037  0.31313615  1
  P  P33  1  0.13909840  0.67792037  0.68686385  1
  P  P34  1  0.45223455  0.17792037  0.31313615  1
  P  P35  1  0.54776545  0.67792037  0.68686385  1
  P  P36  1  0.05016024  0.18819727  0.51573907  1
  P  P37  1  0.94983976  0.68819727  0.48426093  1
  P  P38  1  0.46557882  0.18819727  0.51573907  1
  P  P39  1  0.53442118  0.68819727  0.48426093  1
  P  P40  1  0.17077867  0.03701002  0.75512808  1
  P  P41  1  0.82922133  0.53701002  0.24487192  1
  P  P42  1  0.58434941  0.03701002  0.75512808  1
  P  P43  1  0.41565059  0.53701002  0.24487192  1
  P  P44  1  0.06815920  0.38545680  0.46661986  1
  P  P45  1  0.93184080  0.88545680  0.53338014  1
  P  P46  1  0.34387659  0.35296610  0.68775318  1
  P  P47  1  0.60153934  0.88545680  0.53338014  1
  P  P48  1  0.88223862  0.25292458  0.08387986  1
  P  P49  1  0.11776138  0.75292458  0.91612014  1
  P  P50  1  0.20164124  0.25292458  0.08387986  1
  P  P51  1  0.79835876  0.75292458  0.91612014  1
  P  P52  1  0.29979715  0.47884683  0.90600081  1
  P  P53  1  0.70020285  0.97884683  0.09399919  1
  P  P54  1  0.18237724  0.37918817  0.36475449  1
  P  P55  1  0.39379634  0.97884683  0.09399919  1
  P  P56  1  0.96902798  0.46260986  0.93805596  1
  P  P57  1  0.03097202  0.96260986  0.06194404  1
  P  P58  1  0.92515522  0.63894247  0.85031043  1
  P  P59  1  0.07484478  0.13894247  0.14968957  1
  P  P60  1  0.84527058  0.20770953  0.69054116  1
  P  P61  1  0.15472942  0.70770953  0.30945884  1
  P  P62  1  0.81762276  0.87918817  0.63524551  1
  P  P63  1  0.60620366  0.47884683  0.90600081  1
  La  La64  1  0.54126444  0.57568371  0.08252888  1
  La  La65  1  0.45873556  0.07568371  0.91747112  1
  La  La66  1  0.26587396  0.61433971  0.53174793  1
  La  La67  1  0.73412604  0.11433971  0.46825207  1
  La  La68  1  0.18975114  0.09569516  0.37950228  1
  La  La69  1  0.81024886  0.59569516  0.62049772  1
  La  La70  1  0.08109197  0.50025964  0.16218394  1
  La  La71  1  0.91890803  1.00025964  0.83781606  1
