# generated using pymatgen
data_Nb2Se4O13
_symmetry_space_group_name_H-M   'P 1'
_cell_length_a   6.89968258
_cell_length_b   7.75754174
_cell_length_c   11.69262363
_cell_angle_alpha   109.17605627
_cell_angle_beta   90.00000000
_cell_angle_gamma   90.00000000
_symmetry_Int_Tables_number   1
_chemical_formula_structural   Nb2Se4O13
_chemical_formula_sum   'Nb4 Se8 O26'
_cell_volume   591.11703319
_cell_formula_units_Z   2
loop_
 _symmetry_equiv_pos_site_id
 _symmetry_equiv_pos_as_xyz
  1  'x, y, z'
loop_
 _atom_site_type_symbol
 _atom_site_label
 _atom_site_symmetry_multiplicity
 _atom_site_fract_x
 _atom_site_fract_y
 _atom_site_fract_z
 _atom_site_occupancy
  O  O0  1  0.90123764  0.50001588  0.63790444  1
  O  O1  1  0.09876236  0.00001588  0.63790444  1
  O  O2  1  0.42095697  0.30033679  0.81254733  1
  O  O3  1  0.57904303  0.80033679  0.81254733  1
  O  O4  1  0.75496805  0.13461231  0.72277125  1
  O  O5  1  0.24503195  0.63461231  0.72277125  1
  O  O6  1  0.42239046  0.33654920  0.40232028  1
  O  O7  1  0.57760954  0.83654920  0.40232028  1
  O  O8  1  0.47529675  0.17729795  0.57667653  1
  O  O9  1  0.52470325  0.67729795  0.57667653  1
  O  O10  1  0.78356071  0.16053957  0.40462913  1
  O  O11  1  0.21643929  0.66053957  0.40462913  1
  O  O12  1  0.01289264  0.72746273  0.23078270  1
  O  O13  1  0.98710736  0.22746273  0.23078270  1
  O  O14  1  0.71622801  0.73055861  0.05897288  1
  O  O15  1  0.28377199  0.23055861  0.05897288  1
  O  O16  1  0.71595022  0.07612037  0.04241309  1
  O  O17  1  0.28404978  0.57612037  0.04241309  1
  O  O18  1  0.98240845  0.56140721  0.86992674  1
  O  O19  1  0.01759155  0.06140721  0.86992674  1
  O  O20  1  0.07678280  0.90018422  0.05133442  1
  O  O21  1  0.92321720  0.40018422  0.05133442  1
  O  O22  1  0.52020403  0.00227475  0.21533085  1
  O  O23  1  0.47979597  0.50227475  0.21533085  1
  O  O24  1  0.78081695  0.50029867  0.37984084  1
  O  O25  1  0.21918305  1.00029867  0.37984084  1
  Se  Se26  1  0.48551500  0.10776684  0.70729071  1
  Se  Se27  1  0.51448500  0.60776684  0.70729071  1
  Se  Se28  1  0.92830441  0.95231395  0.72267611  1
  Se  Se29  1  0.07169559  0.45231395  0.72267611  1
  Se  Se30  1  0.93682219  0.32386720  0.38240713  1
  Se  Se31  1  0.06317781  0.82386720  0.38240713  1
  Se  Se32  1  0.43783719  0.41179311  0.06138215  1
  Se  Se33  1  0.56216281  0.91179311  0.06138215  1
  Nb  Nb34  1  0.50710268  0.05873431  0.39663849  1
  Nb  Nb35  1  0.49289732  0.55873431  0.39663849  1
  Nb  Nb36  1  0.99561227  0.17416634  0.04815492  1
  Nb  Nb37  1  0.00438773  0.67416634  0.04815492  1
