# generated using pymatgen
data_Cs2Au2Se3
_symmetry_space_group_name_H-M   'P 1'
_cell_length_a   7.61736007
_cell_length_b   8.46196561
_cell_length_c   8.46196560
_cell_angle_alpha   107.49206475
_cell_angle_beta   91.04131500
_cell_angle_gamma   91.04131496
_symmetry_Int_Tables_number   1
_chemical_formula_structural   Cs2Au2Se3
_chemical_formula_sum   'Cs4 Au4 Se6'
_cell_volume   519.97239236
_cell_formula_units_Z   2
loop_
 _symmetry_equiv_pos_site_id
 _symmetry_equiv_pos_as_xyz
  1  'x, y, z'
loop_
 _atom_site_type_symbol
 _atom_site_label
 _atom_site_symmetry_multiplicity
 _atom_site_fract_x
 _atom_site_fract_y
 _atom_site_fract_z
 _atom_site_occupancy
  Se  Se0  1  0.17589328  0.94920528  0.26679719  1
  Se  Se1  1  0.75000000  0.58278468  0.41721532  1
  Se  Se2  1  0.25000000  0.41721532  0.58278468  1
  Se  Se3  1  0.67589328  0.26679719  0.94920528  1
  Se  Se4  1  0.32410672  0.73320281  0.05079472  1
  Se  Se5  1  0.82410672  0.05079472  0.73320281  1
  Cs  Cs6  1  0.36704224  0.86560906  0.65578570  1
  Cs  Cs7  1  0.86704224  0.65578570  0.86560906  1
  Cs  Cs8  1  0.63295776  0.13439094  0.34421430  1
  Cs  Cs9  1  0.13295776  0.34421430  0.13439094  1
  Au  Au10  1  0.45856994  0.35362100  0.77663619  1
  Au  Au11  1  0.95856994  0.77663619  0.35362100  1
  Au  Au12  1  0.54143006  0.64637900  0.22336381  1
  Au  Au13  1  0.04143006  0.22336381  0.64637900  1
