# generated using pymatgen
data_Cd2Ge7O16
_symmetry_space_group_name_H-M   'P 1'
_cell_length_a   4.71242087
_cell_length_b   11.46441577
_cell_length_c   11.46441577
_cell_angle_alpha   90.00000000
_cell_angle_beta   90.00000000
_cell_angle_gamma   90.00000000
_symmetry_Int_Tables_number   1
_chemical_formula_structural   Cd2Ge7O16
_chemical_formula_sum   'Cd4 Ge14 O32'
_cell_volume   619.36680613
_cell_formula_units_Z   2
loop_
 _symmetry_equiv_pos_site_id
 _symmetry_equiv_pos_as_xyz
  1  'x, y, z'
loop_
 _atom_site_type_symbol
 _atom_site_label
 _atom_site_symmetry_multiplicity
 _atom_site_fract_x
 _atom_site_fract_y
 _atom_site_fract_z
 _atom_site_occupancy
  O  O0  1  0.33409639  0.63878060  0.43551046  1
  O  O1  1  0.33409639  0.36121940  0.56448954  1
  O  O2  1  0.66590361  0.43551046  0.36121940  1
  O  O3  1  0.66590361  0.56448954  0.63878060  1
  O  O4  1  0.33409639  0.86121940  0.93551046  1
  O  O5  1  0.66590361  0.93551046  0.13878060  1
  O  O6  1  0.66590361  0.06448954  0.86121940  1
  O  O7  1  0.33409639  0.13878060  0.06448954  1
  O  O8  1  0.77140563  0.67349287  0.26869039  1
  O  O9  1  0.77140563  0.32650713  0.73130961  1
  O  O10  1  0.22859437  0.26869039  0.32650713  1
  O  O11  1  0.22859437  0.73130961  0.67349287  1
  O  O12  1  0.77140563  0.82650713  0.76869039  1
  O  O13  1  0.22859437  0.76869039  0.17349287  1
  O  O14  1  0.22859437  0.23130961  0.82650713  1
  O  O15  1  0.77140563  0.17349287  0.23130961  1
  O  O16  1  0.22807830  0.53076688  0.21963828  1
  O  O17  1  0.22807830  0.46923312  0.78036172  1
  O  O18  1  0.74800645  1.00065231  0.38148914  1
  O  O19  1  0.25199355  0.38148914  -0.00065231  1
  O  O20  1  0.25199355  0.61851086  1.00065231  1
  O  O21  1  0.74800645  -0.00065231  0.61851086  1
  O  O22  1  0.25199355  0.88148914  0.50065231  1
  O  O23  1  0.25199355  0.11851086  0.49934769  1
  O  O24  1  0.74800645  0.49934769  0.88148914  1
  O  O25  1  0.74800645  0.50065231  0.11851086  1
  O  O26  1  0.22807830  0.03076688  0.28036172  1
  O  O27  1  0.77192170  0.28036172  0.96923312  1
  O  O28  1  0.77192170  0.71963828  0.03076688  1
  O  O29  1  0.22807830  0.96923312  0.71963828  1
  O  O30  1  0.77192170  0.78036172  0.53076688  1
  O  O31  1  0.77192170  0.21963828  0.46923312  1
  Ge  Ge32  1  0.50990915  0.56941173  0.31500218  1
  Ge  Ge33  1  0.50990915  0.43058827  0.68499782  1
  Ge  Ge34  1  0.49009085  0.31500218  0.43058827  1
  Ge  Ge35  1  0.49009085  0.68499782  0.56941173  1
  Ge  Ge36  1  0.50990915  0.93058827  0.81500218  1
  Ge  Ge37  1  0.49009085  0.81500218  0.06941173  1
  Ge  Ge38  1  0.49009085  0.18499782  0.93058827  1
  Ge  Ge39  1  0.50990915  0.06941173  0.18499782  1
  Ge  Ge40  1  0.00000000  0.63571641  0.13571641  1
  Ge  Ge41  1  0.00000000  0.13571641  0.36428359  1
  Ge  Ge42  1  0.00000000  0.86428359  0.63571641  1
  Ge  Ge43  1  0.00000000  0.36428359  0.86428359  1
  Ge  Ge44  1  0.50000000  0.50000000  0.00000000  1
  Ge  Ge45  1  0.50000000  0.00000000  0.50000000  1
  Cd  Cd46  1  0.00000000  0.83678770  0.33678770  1
  Cd  Cd47  1  0.00000000  0.33678770  0.16321230  1
  Cd  Cd48  1  0.00000000  0.66321230  0.83678770  1
  Cd  Cd49  1  0.00000000  0.16321230  0.66321230  1
