# generated using pymatgen
data_Cs2PtCl4
_symmetry_space_group_name_H-M   'P 1'
_cell_length_a   7.52691633
_cell_length_b   7.52691633
_cell_length_c   9.64487109
_cell_angle_alpha   90.00000000
_cell_angle_beta   90.00000000
_cell_angle_gamma   89.93685799
_symmetry_Int_Tables_number   1
_chemical_formula_structural   Cs2PtCl4
_chemical_formula_sum   'Cs4 Pt2 Cl8'
_cell_volume   546.42472250
_cell_formula_units_Z   2
loop_
 _symmetry_equiv_pos_site_id
 _symmetry_equiv_pos_as_xyz
  1  'x, y, z'
loop_
 _atom_site_type_symbol
 _atom_site_label
 _atom_site_symmetry_multiplicity
 _atom_site_fract_x
 _atom_site_fract_y
 _atom_site_fract_z
 _atom_site_occupancy
  Cl  Cl0  1  0.78124718  0.78124718  0.49242460  1
  Cl  Cl1  1  0.78124718  0.78124718  0.00757540  1
  Cl  Cl2  1  0.21914849  0.78085151  0.00000000  1
  Cl  Cl3  1  0.78085151  0.21914849  0.50000000  1
  Cl  Cl4  1  0.78085151  0.21914849  0.00000000  1
  Cl  Cl5  1  0.21875282  0.21875282  0.50757540  1
  Cl  Cl6  1  0.21875282  0.21875282  0.99242460  1
  Cl  Cl7  1  0.21914849  0.78085151  0.50000000  1
  Cs  Cs8  1  0.50520357  0.99431136  0.75000000  1
  Cs  Cs9  1  0.00568864  0.49479643  0.25000000  1
  Cs  Cs10  1  0.49479643  0.00568864  0.25000000  1
  Cs  Cs11  1  0.99431136  0.50520357  0.75000000  1
  Pt  Pt12  1  0.00000000  0.00000000  0.50000000  1
  Pt  Pt13  1  0.00000000  0.00000000  0.00000000  1
