# generated using pymatgen
data_Li3MnV3O8
_symmetry_space_group_name_H-M   'P 1'
_cell_length_a   5.94902012
_cell_length_b   5.94902001
_cell_length_c   5.97238184
_cell_angle_alpha   60.12970543
_cell_angle_beta   60.12971334
_cell_angle_gamma   59.98403739
_symmetry_Int_Tables_number   1
_chemical_formula_structural   Li3MnV3O8
_chemical_formula_sum   'Li3 Mn1 V3 O8'
_cell_volume   149.73367863
_cell_formula_units_Z   1
loop_
 _symmetry_equiv_pos_site_id
 _symmetry_equiv_pos_as_xyz
  1  'x, y, z'
loop_
 _atom_site_type_symbol
 _atom_site_label
 _atom_site_symmetry_multiplicity
 _atom_site_fract_x
 _atom_site_fract_y
 _atom_site_fract_z
 _atom_site_occupancy
  Li  Li0  1  0.50000588  0.99999304  0.50000244  1
  Li  Li1  1  0.99999304  0.50000588  0.50000244  1
  Li  Li2  1  0.00000075  0.00000075  0.50000603  1
  Mn  Mn3  1  0.50001103  0.50001103  0.49998035  1
  V  V4  1  0.50000323  0.50000323  0.99999281  1
  V  V5  1  0.49999773  0.00000139  0.00000393  1
  V  V6  1  0.00000139  0.49999773  0.00000393  1
  O  O7  1  0.73033140  0.73033140  0.25748824  1
  O  O8  1  0.73043142  0.28173030  0.25747169  1
  O  O9  1  0.28173030  0.73043142  0.25747169  1
  O  O10  1  0.25885067  0.25885067  0.22359326  1
  O  O11  1  0.74115594  0.74115594  0.77640367  1
  O  O12  1  0.71826450  0.26957015  0.74251704  1
  O  O13  1  0.26957015  0.71826450  0.74251704  1
  O  O14  1  0.26965956  0.26965956  0.74252043  1
