# generated using pymatgen
data_Na5AuSe12
_symmetry_space_group_name_H-M   'P 1'
_cell_length_a   7.22520873
_cell_length_b   8.47155516
_cell_length_c   17.20048471
_cell_angle_alpha   90.00000000
_cell_angle_beta   90.00000000
_cell_angle_gamma   106.54008156
_symmetry_Int_Tables_number   1
_chemical_formula_structural   Na5AuSe12
_chemical_formula_sum   'Na10 Au2 Se24'
_cell_volume   1009.25539917
_cell_formula_units_Z   2
loop_
 _symmetry_equiv_pos_site_id
 _symmetry_equiv_pos_as_xyz
  1  'x, y, z'
loop_
 _atom_site_type_symbol
 _atom_site_label
 _atom_site_symmetry_multiplicity
 _atom_site_fract_x
 _atom_site_fract_y
 _atom_site_fract_z
 _atom_site_occupancy
  Na  Na0  1  0.22253978  0.34906871  0.35336324  1
  Na  Na1  1  0.77746022  0.65093129  0.85336324  1
  Na  Na2  1  0.22013304  0.01774703  0.93793518  1
  Na  Na3  1  0.77986696  0.98225297  0.43793518  1
  Na  Na4  1  0.70685012  0.44167794  0.07090717  1
  Na  Na5  1  0.29314988  0.55832206  0.57090717  1
  Na  Na6  1  0.33645471  0.28681105  0.76139011  1
  Na  Na7  1  0.66354529  0.71318895  0.26139011  1
  Na  Na8  1  0.12123241  0.10272432  0.13901835  1
  Na  Na9  1  0.87876759  0.89727568  0.63901835  1
  Se  Se10  1  0.99027556  0.42395132  0.78769810  1
  Se  Se11  1  0.04870449  0.21225238  0.54583172  1
  Se  Se12  1  0.61177894  0.08104660  0.72047214  1
  Se  Se13  1  0.38822106  0.91895340  0.22047214  1
  Se  Se14  1  0.95175119  0.24677607  0.98098007  1
  Se  Se15  1  0.04824881  0.75322393  0.48098007  1
  Se  Se16  1  0.57500471  0.89378493  0.91141539  1
  Se  Se17  1  0.00972444  0.57604868  0.28769810  1
  Se  Se18  1  0.78360078  0.51744110  0.44893538  1
  Se  Se19  1  0.42499529  0.10621507  0.41141539  1
  Se  Se20  1  0.36544295  0.83203738  0.75193357  1
  Se  Se21  1  0.63455705  0.16796262  0.25193357  1
  Se  Se22  1  0.21639922  0.48255890  0.94893538  1
  Se  Se23  1  0.39441471  0.42206831  0.18772286  1
  Se  Se24  1  0.84420981  0.43585824  0.66193565  1
  Se  Se25  1  0.15579019  0.56414176  0.16193565  1
  Se  Se26  1  0.68790091  0.90464596  0.04362347  1
  Se  Se27  1  0.31209909  0.09535404  0.54362347  1
  Se  Se28  1  0.09646494  0.93463029  0.78074282  1
  Se  Se29  1  0.90353506  0.06536971  0.28074282  1
  Se  Se30  1  0.47409093  0.36280376  0.92784701  1
  Se  Se31  1  0.52590907  0.63719624  0.42784701  1
  Se  Se32  1  0.60558529  0.57793169  0.68772286  1
  Se  Se33  1  0.95129551  0.78774762  0.04583172  1
  Au  Au34  1  0.78376323  0.15894716  0.85012776  1
  Au  Au35  1  0.21623677  0.84105284  0.35012776  1
