# generated using pymatgen
data_Ge3PbO7
_symmetry_space_group_name_H-M   'P 1'
_cell_length_a   5.35139093
_cell_length_b   14.32613547
_cell_length_c   16.37865738
_cell_angle_alpha   90.00000000
_cell_angle_beta   90.00000000
_cell_angle_gamma   90.00000000
_symmetry_Int_Tables_number   1
_chemical_formula_structural   Ge3PbO7
_chemical_formula_sum   'Ge24 Pb8 O56'
_cell_volume   1255.66569657
_cell_formula_units_Z   8
loop_
 _symmetry_equiv_pos_site_id
 _symmetry_equiv_pos_as_xyz
  1  'x, y, z'
loop_
 _atom_site_type_symbol
 _atom_site_label
 _atom_site_symmetry_multiplicity
 _atom_site_fract_x
 _atom_site_fract_y
 _atom_site_fract_z
 _atom_site_occupancy
  O  O0  1  0.63407169  0.90889108  0.33580485  1
  O  O1  1  0.13407169  0.09110892  0.16419515  1
  O  O2  1  0.86592831  0.40889108  0.66419515  1
  O  O3  1  0.36592831  0.59110892  0.83580485  1
  O  O4  1  0.36592831  0.09110892  0.66419515  1
  O  O5  1  0.86592831  0.90889108  0.83580485  1
  O  O6  1  0.13407169  0.59110892  0.33580485  1
  O  O7  1  0.63407169  0.40889108  0.16419515  1
  O  O8  1  0.62337853  0.53374347  0.34501818  1
  O  O9  1  0.12337853  0.46625653  0.15498182  1
  O  O10  1  0.87662147  0.03374347  0.65498182  1
  O  O11  1  0.37662147  0.96625653  0.84501818  1
  O  O12  1  0.37662147  0.46625653  0.65498182  1
  O  O13  1  0.87662147  0.53374347  0.84501818  1
  O  O14  1  0.12337853  0.96625653  0.34501818  1
  O  O15  1  0.62337853  0.03374347  0.15498182  1
  O  O16  1  0.57820480  0.75019415  0.08255396  1
  O  O17  1  0.07820480  0.24980585  0.41744604  1
  O  O18  1  0.92179520  0.25019415  0.91744604  1
  O  O19  1  0.42179520  0.74980585  0.58255396  1
  O  O20  1  0.42179520  0.24980585  0.91744604  1
  O  O21  1  0.92179520  0.75019415  0.58255396  1
  O  O22  1  0.07820480  0.74980585  0.08255396  1
  O  O23  1  0.57820480  0.25019415  0.41744604  1
  O  O24  1  0.77953452  0.70141878  0.43208482  1
  O  O25  1  0.27953452  0.29858122  0.06791518  1
  O  O26  1  0.72046548  0.20141878  0.56791518  1
  O  O27  1  0.22046548  0.79858122  0.93208482  1
  O  O28  1  0.22046548  0.29858122  0.56791518  1
  O  O29  1  0.72046548  0.70141878  0.93208482  1
  O  O30  1  0.27953452  0.79858122  0.43208482  1
  O  O31  1  0.77953452  0.20141878  0.06791518  1
  O  O32  1  0.71690005  0.57963191  0.08777441  1
  O  O33  1  0.21690005  0.42036809  0.41222559  1
  O  O34  1  0.78309995  0.07963191  0.91222559  1
  O  O35  1  0.28309995  0.92036809  0.58777441  1
  O  O36  1  0.28309995  0.42036809  0.91222559  1
  O  O37  1  0.78309995  0.57963191  0.58777441  1
  O  O38  1  0.21690005  0.92036809  0.08777441  1
  O  O39  1  0.71690005  0.07963191  0.41222559  1
  O  O40  1  0.62243849  0.90538427  0.99725476  1
  O  O41  1  0.12243849  0.09461573  0.50274524  1
  O  O42  1  0.87756151  0.40538427  0.00274524  1
  O  O43  1  0.37756151  0.59461573  0.49725476  1
  O  O44  1  0.37756151  0.09461573  0.00274524  1
  O  O45  1  0.87756151  0.90538427  0.49725476  1
  O  O46  1  0.12243849  0.59461573  0.99725476  1
  O  O47  1  0.62243849  0.40538427  0.50274524  1
  O  O48  1  0.76029120  0.69529096  0.25240671  1
  O  O49  1  0.26029120  0.30470904  0.24759329  1
  O  O50  1  0.73970880  0.19529096  0.74759329  1
  O  O51  1  0.23970880  0.80470904  0.75240671  1
  O  O52  1  0.23970880  0.30470904  0.74759329  1
  O  O53  1  0.73970880  0.69529096  0.75240671  1
  O  O54  1  0.26029120  0.80470904  0.25240671  1
  O  O55  1  0.76029120  0.19529096  0.24759329  1
  Ge  Ge56  1  0.82383016  0.63514339  0.34210411  1
  Ge  Ge57  1  0.32383016  0.36485661  0.15789589  1
  Ge  Ge58  1  0.67616984  0.13514339  0.65789589  1
  Ge  Ge59  1  0.17616984  0.86485661  0.84210411  1
  Ge  Ge60  1  0.17616984  0.36485661  0.65789589  1
  Ge  Ge61  1  0.67616984  0.63514339  0.84210411  1
  Ge  Ge62  1  0.32383016  0.86485661  0.34210411  1
  Ge  Ge63  1  0.82383016  0.13514339  0.15789589  1
  Ge  Ge64  1  0.84457644  0.96528892  0.40525072  1
  Ge  Ge65  1  0.34457644  0.03471108  0.09474928  1
  Ge  Ge66  1  0.65542356  0.46528892  0.59474928  1
  Ge  Ge67  1  0.15542356  0.53471108  0.90525072  1
  Ge  Ge68  1  0.15542356  0.03471108  0.59474928  1
  Ge  Ge69  1  0.65542356  0.96528892  0.90525072  1
  Ge  Ge70  1  0.34457644  0.53471108  0.40525072  1
  Ge  Ge71  1  0.84457644  0.46528892  0.09474928  1
  Ge  Ge72  1  0.85880070  0.67556740  0.02897478  1
  Ge  Ge73  1  0.35880070  0.32443260  0.47102522  1
  Ge  Ge74  1  0.64119930  0.17556740  0.97102522  1
  Ge  Ge75  1  0.14119930  0.82443260  0.52897478  1
  Ge  Ge76  1  0.14119930  0.32443260  0.97102522  1
  Ge  Ge77  1  0.64119930  0.67556740  0.52897478  1
  Ge  Ge78  1  0.35880070  0.82443260  0.02897478  1
  Ge  Ge79  1  0.85880070  0.17556740  0.47102522  1
  Pb  Pb80  1  0.87289886  0.84707174  0.18685692  1
  Pb  Pb81  1  0.37289886  0.15292826  0.31314308  1
  Pb  Pb82  1  0.62710114  0.34707174  0.81314308  1
  Pb  Pb83  1  0.12710114  0.65292826  0.68685692  1
  Pb  Pb84  1  0.12710114  0.15292826  0.81314308  1
  Pb  Pb85  1  0.62710114  0.84707174  0.68685692  1
  Pb  Pb86  1  0.37289886  0.65292826  0.18685692  1
  Pb  Pb87  1  0.87289886  0.34707174  0.31314308  1
