# generated using pymatgen
data_Te4P2O13
_symmetry_space_group_name_H-M   'P 1'
_cell_length_a   4.74466695
_cell_length_b   11.46771080
_cell_length_c   20.46521537
_cell_angle_alpha   93.65947989
_cell_angle_beta   90.00000000
_cell_angle_gamma   90.00000000
_symmetry_Int_Tables_number   1
_chemical_formula_structural   Te4P2O13
_chemical_formula_sum   'Te16 P8 O52'
_cell_volume   1111.25149018
_cell_formula_units_Z   4
loop_
 _symmetry_equiv_pos_site_id
 _symmetry_equiv_pos_as_xyz
  1  'x, y, z'
loop_
 _atom_site_type_symbol
 _atom_site_label
 _atom_site_symmetry_multiplicity
 _atom_site_fract_x
 _atom_site_fract_y
 _atom_site_fract_z
 _atom_site_occupancy
  O  O0  1  0.16422271  0.94911345  0.35761472  1
  O  O1  1  0.66422271  0.55088655  0.14238528  1
  O  O2  1  0.83577729  0.05088655  0.64238528  1
  O  O3  1  0.33577729  0.44911345  0.85761472  1
  O  O4  1  0.40367428  0.71976120  0.07112965  1
  O  O5  1  0.90367428  0.78023880  0.42887035  1
  O  O6  1  0.59632572  0.28023880  0.92887035  1
  O  O7  1  0.09632572  0.21976120  0.57112965  1
  O  O8  1  0.05854773  0.65055716  0.84500675  1
  O  O9  1  0.55854773  0.84944284  0.65499325  1
  O  O10  1  0.94145227  0.34944284  0.15499325  1
  O  O11  1  0.44145227  0.15055716  0.34500675  1
  O  O12  1  0.32662128  0.69668341  0.73423036  1
  O  O13  1  0.82662128  0.80331659  0.76576964  1
  O  O14  1  0.67337872  0.30331659  0.26576964  1
  O  O15  1  0.17337872  0.19668341  0.23423036  1
  O  O16  1  0.33909349  0.00898117  0.57681562  1
  O  O17  1  0.83909349  0.49101883  0.92318438  1
  O  O18  1  0.06098205  0.73122799  0.29880419  1
  O  O19  1  0.66090651  0.99101883  0.42318438  1
  O  O20  1  0.02426862  0.55494739  0.37041355  1
  O  O21  1  0.52426862  0.94505261  0.12958645  1
  O  O22  1  0.97573138  0.44505261  0.62958645  1
  O  O23  1  0.47573138  0.05494739  0.87041355  1
  O  O24  1  0.07914030  0.11465248  0.10198345  1
  O  O25  1  0.57914030  0.38534752  0.39801655  1
  O  O26  1  0.92085970  0.88534752  0.89801655  1
  O  O27  1  0.42085970  0.61465248  0.60198345  1
  O  O28  1  0.04738547  0.27717660  0.02302843  1
  O  O29  1  0.54738547  0.22282340  0.47697157  1
  O  O30  1  0.95261453  0.72282340  0.97697157  1
  O  O31  1  0.45261453  0.77717660  0.52302843  1
  O  O32  1  0.48694378  0.26060457  0.09600516  1
  O  O33  1  0.98694378  0.23939543  0.40399484  1
  O  O34  1  0.51305622  0.73939543  0.90399484  1
  O  O35  1  0.01305622  0.76060457  0.59600516  1
  O  O36  1  0.37629712  0.10892864  0.00184463  1
  O  O37  1  0.87629712  0.39107136  0.49815537  1
  O  O38  1  0.62370288  0.89107136  0.99815537  1
  O  O39  1  0.12370288  0.60892864  0.50184463  1
  O  O40  1  0.01913505  0.17300575  0.86500806  1
  O  O41  1  0.51913505  0.32699425  0.63499194  1
  O  O42  1  0.98086495  0.82699425  0.13499194  1
  O  O43  1  0.48086495  0.67300575  0.36500806  1
  O  O44  1  0.19113982  0.03854268  0.76732144  1
  O  O45  1  0.69113982  0.46145732  0.73267856  1
  O  O46  1  0.80886018  0.96145732  0.23267856  1
  O  O47  1  0.30886018  0.53854268  0.26732144  1
  O  O48  1  0.43901795  0.23122799  0.79880419  1
  O  O49  1  0.93901795  0.26877201  0.70119581  1
  O  O50  1  0.56098205  0.76877201  0.20119581  1
  O  O51  1  0.16090651  0.50898117  0.07681562  1
  P  P52  1  0.22403080  0.62543767  0.32230436  1
  P  P53  1  0.72403080  0.87456233  0.17769564  1
  P  P54  1  0.77596920  0.37456233  0.67769564  1
  P  P55  1  0.27596920  0.12543767  0.82230436  1
  P  P56  1  0.24776047  0.69378646  0.55799218  1
  P  P57  1  0.74776047  0.80621354  0.94200782  1
  P  P58  1  0.75223953  0.30621354  0.44200782  1
  P  P59  1  0.25223953  0.19378646  0.05799218  1
  Te  Te60  1  0.76923212  0.62408649  0.43809483  1
  Te  Te61  1  0.26923212  0.87591351  0.06190517  1
  Te  Te62  1  0.23076788  0.37591351  0.56190517  1
  Te  Te63  1  0.73076788  0.12408649  0.93809483  1
  Te  Te64  1  0.31328247  0.62932925  0.15014413  1
  Te  Te65  1  0.81328247  0.87067075  0.34985587  1
  Te  Te66  1  0.68671753  0.37067075  0.84985587  1
  Te  Te67  1  0.18671753  0.12932925  0.65014413  1
  Te  Te68  1  0.18805903  0.57926067  0.92354515  1
  Te  Te69  1  0.68805903  0.92073933  0.57645485  1
  Te  Te70  1  0.81194097  0.42073933  0.07645485  1
  Te  Te71  1  0.31194097  0.07926067  0.42354515  1
  Te  Te72  1  0.67967181  0.70045187  0.68847340  1
  Te  Te73  1  0.17967181  0.79954813  0.81152660  1
  Te  Te74  1  0.32032819  0.29954813  0.31152660  1
  Te  Te75  1  0.82032819  0.20045187  0.18847340  1
