# generated using pymatgen
data_P4(S2O)3
_symmetry_space_group_name_H-M   'P 1'
_cell_length_a   6.96540559
_cell_length_b   7.72427132
_cell_length_c   13.00308733
_cell_angle_alpha   90.00000000
_cell_angle_beta   90.00000000
_cell_angle_gamma   104.54606853
_symmetry_Int_Tables_number   1
_chemical_formula_structural   P4(S2O)3
_chemical_formula_sum   'P8 S12 O6'
_cell_volume   677.17597806
_cell_formula_units_Z   2
loop_
 _symmetry_equiv_pos_site_id
 _symmetry_equiv_pos_as_xyz
  1  'x, y, z'
loop_
 _atom_site_type_symbol
 _atom_site_label
 _atom_site_symmetry_multiplicity
 _atom_site_fract_x
 _atom_site_fract_y
 _atom_site_fract_z
 _atom_site_occupancy
  O  O0  1  0.70460697  0.96770374  0.65258983  1
  O  O1  1  0.19895912  0.73921145  0.25000000  1
  O  O2  1  0.70460697  0.96770374  0.84741017  1
  O  O3  1  0.29539303  0.03229626  0.34741017  1
  O  O4  1  0.29539303  0.03229626  0.15258983  1
  O  O5  1  0.80104088  0.26078855  0.75000000  1
  P  P6  1  0.82088427  0.17817294  0.86450760  1
  P  P7  1  0.80678518  0.95706540  0.25000000  1
  P  P8  1  0.17911573  0.82182706  0.36450760  1
  P  P9  1  0.17911573  0.82182706  0.13549240  1
  P  P10  1  0.82088427  0.17817294  0.63549240  1
  P  P11  1  0.29291025  0.16609051  0.25000000  1
  P  P12  1  0.19321482  0.04293460  0.75000000  1
  P  P13  1  0.70708975  0.83390949  0.75000000  1
  S  S14  1  0.71846434  0.29207932  0.97273848  1
  S  S15  1  0.28153566  0.70792068  0.47273848  1
  S  S16  1  0.28153566  0.70792068  0.02726152  1
  S  S17  1  0.71846434  0.29207932  0.52726152  1
  S  S18  1  0.49601689  0.62442201  0.75000000  1
  S  S19  1  0.50398311  0.37557799  0.25000000  1
  S  S20  1  0.11970507  0.18155892  0.88116428  1
  S  S21  1  0.11970507  0.18155892  0.61883572  1
  S  S22  1  0.88029493  0.81844108  0.11883572  1
  S  S23  1  0.01203855  0.21503069  0.25000000  1
  S  S24  1  0.98796145  0.78496931  0.75000000  1
  S  S25  1  0.88029493  0.81844108  0.38116428  1
