# generated using pymatgen
data_Ca3Ga4O9
_symmetry_space_group_name_H-M   'P 1'
_cell_length_a   5.37284329
_cell_length_b   11.17379282
_cell_length_c   11.17379282
_cell_angle_alpha   99.00450312
_cell_angle_beta   90.00000000
_cell_angle_gamma   90.00000000
_symmetry_Int_Tables_number   1
_chemical_formula_structural   Ca3Ga4O9
_chemical_formula_sum   'Ca9 Ga12 O27'
_cell_volume   662.55192794
_cell_formula_units_Z   3
loop_
 _symmetry_equiv_pos_site_id
 _symmetry_equiv_pos_as_xyz
  1  'x, y, z'
loop_
 _atom_site_type_symbol
 _atom_site_label
 _atom_site_symmetry_multiplicity
 _atom_site_fract_x
 _atom_site_fract_y
 _atom_site_fract_z
 _atom_site_occupancy
  O  O0  1  0.75759727  0.00000000  0.50000000  1
  O  O1  1  0.75759727  0.50000000  0.00000000  1
  O  O2  1  0.77241158  0.75488985  0.58486873  1
  O  O3  1  0.77241158  0.24511015  0.41513127  1
  O  O4  1  0.77241158  0.41513127  0.24511015  1
  O  O5  1  0.77241158  0.58486873  0.75488985  1
  O  O6  1  0.86491582  0.72860634  0.27139366  1
  O  O7  1  0.86491582  0.27139366  0.72860634  1
  O  O8  1  0.84806924  0.02395605  0.20288531  1
  O  O9  1  0.84806924  0.97604395  0.79711469  1
  O  O10  1  0.84806924  0.79711469  0.97604395  1
  O  O11  1  0.84806924  0.20288531  0.02395605  1
  O  O12  1  0.77801752  0.50000000  0.50000000  1
  O  O13  1  0.33673857  0.93299866  0.65390126  1
  O  O14  1  0.33673857  0.06700134  0.34609874  1
  O  O15  1  0.33673857  0.34609874  0.06700134  1
  O  O16  1  0.33673857  0.65390126  0.93299866  1
  O  O17  1  0.40196526  0.84614765  0.15385235  1
  O  O18  1  0.40196526  0.15385235  0.84614765  1
  O  O19  1  0.35848922  0.79617315  0.40497328  1
  O  O20  1  0.35848922  0.20382685  0.59502672  1
  O  O21  1  0.26771735  0.39190969  0.39190969  1
  O  O22  1  0.26771735  0.60809031  0.60809031  1
  O  O23  1  0.33887288  0.10284038  0.10284038  1
  O  O24  1  0.33887288  0.89715962  0.89715962  1
  O  O25  1  0.35848922  0.40497328  0.79617315  1
  O  O26  1  0.35848922  0.59502672  0.20382685  1
  Ca  Ca27  1  0.99781300  0.00000000  0.00000000  1
  Ca  Ca28  1  0.09181705  0.40235354  0.59764646  1
  Ca  Ca29  1  0.09181705  0.59764646  0.40235354  1
  Ca  Ca30  1  0.03205867  0.33865264  0.92033360  1
  Ca  Ca31  1  0.03205867  0.66134736  0.07966640  1
  Ca  Ca32  1  0.03205867  0.07966640  0.66134736  1
  Ca  Ca33  1  0.03205867  0.92033360  0.33865264  1
  Ca  Ca34  1  0.04607194  0.24031547  0.24031547  1
  Ca  Ca35  1  0.04607194  0.75968453  0.75968453  1
  Ga  Ga36  1  0.51293625  0.98463672  0.79711715  1
  Ga  Ga37  1  0.51293625  0.79711715  0.98463672  1
  Ga  Ga38  1  0.51293625  0.20288285  0.01536328  1
  Ga  Ga39  1  0.51293625  0.01536328  0.20288285  1
  Ga  Ga40  1  0.55929815  0.53503794  0.86586639  1
  Ga  Ga41  1  0.55929815  0.46496206  0.13413361  1
  Ga  Ga42  1  0.55929815  0.13413361  0.46496206  1
  Ga  Ga43  1  0.55929815  0.86586639  0.53503794  1
  Ga  Ga44  1  0.60651131  0.38814776  0.38814776  1
  Ga  Ga45  1  0.60651131  0.61185224  0.61185224  1
  Ga  Ga46  1  0.52815248  0.26230454  0.73769546  1
  Ga  Ga47  1  0.52815248  0.73769546  0.26230454  1
