# generated using pymatgen
data_Pr2MgNi2
_symmetry_space_group_name_H-M   'P 1'
_cell_length_a   3.90290721
_cell_length_b   7.54792770
_cell_length_c   7.54792770
_cell_angle_alpha   90.00000000
_cell_angle_beta   90.00000000
_cell_angle_gamma   90.00000000
_symmetry_Int_Tables_number   1
_chemical_formula_structural   Pr2MgNi2
_chemical_formula_sum   'Pr4 Mg2 Ni4'
_cell_volume   222.35335628
_cell_formula_units_Z   2
loop_
 _symmetry_equiv_pos_site_id
 _symmetry_equiv_pos_as_xyz
  1  'x, y, z'
loop_
 _atom_site_type_symbol
 _atom_site_label
 _atom_site_symmetry_multiplicity
 _atom_site_fract_x
 _atom_site_fract_y
 _atom_site_fract_z
 _atom_site_occupancy
  Mg  Mg0  1  0.00000000  0.50000000  0.50000000  1
  Mg  Mg1  1  0.00000000  0.00000000  0.00000000  1
  Ni  Ni2  1  0.00000000  0.61873694  0.11873694  1
  Ni  Ni3  1  0.00000000  0.88126306  0.61873694  1
  Ni  Ni4  1  0.00000000  0.38126306  0.88126306  1
  Ni  Ni5  1  0.00000000  0.11873694  0.38126306  1
  Pr  Pr6  1  0.50000000  0.82495672  0.32495672  1
  Pr  Pr7  1  0.50000000  0.67504328  0.82495672  1
  Pr  Pr8  1  0.50000000  0.32495672  0.17504328  1
  Pr  Pr9  1  0.50000000  0.17504328  0.67504328  1
