# generated using pymatgen
data_LuB2Ru
_symmetry_space_group_name_H-M   'P 1'
_cell_length_a   5.26288106
_cell_length_b   5.82985811
_cell_length_c   6.28854201
_cell_angle_alpha   90.00000000
_cell_angle_beta   90.00000000
_cell_angle_gamma   90.00000000
_symmetry_Int_Tables_number   1
_chemical_formula_structural   LuB2Ru
_chemical_formula_sum   'Lu4 B8 Ru4'
_cell_volume   192.94410160
_cell_formula_units_Z   4
loop_
 _symmetry_equiv_pos_site_id
 _symmetry_equiv_pos_as_xyz
  1  'x, y, z'
loop_
 _atom_site_type_symbol
 _atom_site_label
 _atom_site_symmetry_multiplicity
 _atom_site_fract_x
 _atom_site_fract_y
 _atom_site_fract_z
 _atom_site_occupancy
  B  B0  1  0.91618642  0.13471363  0.46481733  1
  B  B1  1  0.41618642  0.86528637  0.53518267  1
  B  B2  1  0.58381358  0.63471363  0.03518267  1
  B  B3  1  0.08381358  0.36528637  0.96481733  1
  B  B4  1  0.08381358  0.86528637  0.53518267  1
  B  B5  1  0.91618642  0.63471363  0.03518267  1
  B  B6  1  0.41618642  0.36528637  0.96481733  1
  B  B7  1  0.58381358  0.13471363  0.46481733  1
  Ru  Ru8  1  0.75000000  0.81939532  0.31834368  1
  Ru  Ru9  1  0.75000000  0.31939532  0.18165632  1
  Ru  Ru10  1  0.25000000  0.18060468  0.68165632  1
  Ru  Ru11  1  0.25000000  0.68060468  0.81834368  1
  Lu  Lu12  1  0.25000000  0.51127256  0.33442381  1
  Lu  Lu13  1  0.75000000  0.48872744  0.66557619  1
  Lu  Lu14  1  0.25000000  0.01127256  0.16557619  1
  Lu  Lu15  1  0.75000000  0.98872744  0.83442381  1
