# generated using pymatgen
data_Tl2SnSe3
_symmetry_space_group_name_H-M   'P 1'
_cell_length_a   8.28191104
_cell_length_b   8.47777951
_cell_length_c   21.65861245
_cell_angle_alpha   90.00000000
_cell_angle_beta   90.00000000
_cell_angle_gamma   90.00000000
_symmetry_Int_Tables_number   1
_chemical_formula_structural   Tl2SnSe3
_chemical_formula_sum   'Tl16 Sn8 Se24'
_cell_volume   1520.69916950
_cell_formula_units_Z   8
loop_
 _symmetry_equiv_pos_site_id
 _symmetry_equiv_pos_as_xyz
  1  'x, y, z'
loop_
 _atom_site_type_symbol
 _atom_site_label
 _atom_site_symmetry_multiplicity
 _atom_site_fract_x
 _atom_site_fract_y
 _atom_site_fract_z
 _atom_site_occupancy
  Se  Se0  1  0.01372153  0.83554288  0.09267073  1
  Se  Se1  1  0.51372153  0.66445712  0.40732927  1
  Se  Se2  1  0.48627847  0.33554288  0.90732927  1
  Se  Se3  1  0.98627847  0.16445712  0.59267073  1
  Se  Se4  1  0.98627847  0.16445712  0.90732927  1
  Se  Se5  1  0.48627847  0.33554288  0.59267073  1
  Se  Se6  1  0.51372153  0.66445712  0.09267073  1
  Se  Se7  1  0.01372153  0.83554288  0.40732927  1
  Se  Se8  1  0.12713428  0.68086440  0.60661832  1
  Se  Se9  1  0.62713428  0.81913560  0.89338168  1
  Se  Se10  1  0.37286572  0.18086440  0.39338168  1
  Se  Se11  1  0.87286572  0.31913560  0.10661832  1
  Se  Se12  1  0.87286572  0.31913560  0.39338168  1
  Se  Se13  1  0.37286572  0.18086440  0.10661832  1
  Se  Se14  1  0.62713428  0.81913560  0.60661832  1
  Se  Se15  1  0.33358455  0.84004563  0.25000000  1
  Se  Se16  1  0.00915583  0.16480597  0.25000000  1
  Se  Se17  1  0.50915583  0.33519403  0.25000000  1
  Se  Se18  1  0.49084417  0.66480597  0.75000000  1
  Se  Se19  1  0.99084417  0.83519403  0.75000000  1
  Se  Se20  1  0.66641545  0.15995437  0.75000000  1
  Se  Se21  1  0.16641545  0.34004563  0.75000000  1
  Se  Se22  1  0.83358455  0.65995437  0.25000000  1
  Se  Se23  1  0.12713428  0.68086440  0.89338168  1
  Sn  Sn24  1  0.17622660  0.00950396  0.33333853  1
  Sn  Sn25  1  0.67622660  0.49049604  0.33333853  1
  Sn  Sn26  1  0.32377340  0.50950396  0.83333853  1
  Sn  Sn27  1  0.82377340  0.99049604  0.66666147  1
  Sn  Sn28  1  0.82377340  0.99049604  0.83333853  1
  Sn  Sn29  1  0.32377340  0.50950396  0.66666147  1
  Sn  Sn30  1  0.67622660  0.49049604  0.16666147  1
  Sn  Sn31  1  0.17622660  0.00950396  0.16666147  1
  Tl  Tl32  1  0.67564158  0.98661225  0.33319613  1
  Tl  Tl33  1  0.82435842  0.48661225  0.83319613  1
  Tl  Tl34  1  0.17564158  0.51338775  0.33319613  1
  Tl  Tl35  1  0.67564158  0.98661225  0.16680387  1
  Tl  Tl36  1  0.32435842  0.01338775  0.66680387  1
  Tl  Tl37  1  0.17564158  0.51338775  0.16680387  1
  Tl  Tl38  1  0.82435842  0.48661225  0.66680387  1
  Tl  Tl39  1  0.32435842  0.01338775  0.83319613  1
  Tl  Tl40  1  0.26524519  0.94816990  0.50539126  1
  Tl  Tl41  1  0.76524519  0.55183010  0.99460874  1
  Tl  Tl42  1  0.23475481  0.44816990  0.49460874  1
  Tl  Tl43  1  0.73475481  0.05183010  0.00539126  1
  Tl  Tl44  1  0.73475481  0.05183010  0.49460874  1
  Tl  Tl45  1  0.23475481  0.44816990  0.00539126  1
  Tl  Tl46  1  0.76524519  0.55183010  0.50539126  1
  Tl  Tl47  1  0.26524519  0.94816990  0.99460874  1
