# generated using pymatgen
data_TlAgSe
_symmetry_space_group_name_H-M   'P 1'
_cell_length_a   4.70091345
_cell_length_b   8.47508160
_cell_length_c   7.68612704
_cell_angle_alpha   90.00000000
_cell_angle_beta   90.00000000
_cell_angle_gamma   90.00000000
_symmetry_Int_Tables_number   1
_chemical_formula_structural   TlAgSe
_chemical_formula_sum   'Tl4 Ag4 Se4'
_cell_volume   306.22010574
_cell_formula_units_Z   4
loop_
 _symmetry_equiv_pos_site_id
 _symmetry_equiv_pos_as_xyz
  1  'x, y, z'
loop_
 _atom_site_type_symbol
 _atom_site_label
 _atom_site_symmetry_multiplicity
 _atom_site_fract_x
 _atom_site_fract_y
 _atom_site_fract_z
 _atom_site_occupancy
  Se  Se0  1  0.25000000  0.81541495  0.40028294  1
  Se  Se1  1  0.75000000  0.18458505  0.59971706  1
  Se  Se2  1  0.25000000  0.31541495  0.09971706  1
  Se  Se3  1  0.75000000  0.68458505  0.90028294  1
  Ag  Ag4  1  0.75000000  0.32467213  0.91555831  1
  Ag  Ag5  1  0.25000000  0.67532787  0.08444169  1
  Ag  Ag6  1  0.75000000  0.82467213  0.58444169  1
  Ag  Ag7  1  0.25000000  0.17532787  0.41555831  1
  Tl  Tl8  1  0.25000000  -0.00076294  0.81642254  1
  Tl  Tl9  1  0.75000000  1.00076294  0.18357746  1
  Tl  Tl10  1  0.25000000  0.49923706  0.68357746  1
  Tl  Tl11  1  0.75000000  0.50076294  0.31642254  1
