# generated using pymatgen
data_Cd2P6O17
_symmetry_space_group_name_H-M   'P 1'
_cell_length_a   5.61178216
_cell_length_b   7.71093321
_cell_length_c   18.38817681
_cell_angle_alpha   90.00000000
_cell_angle_beta   90.00000000
_cell_angle_gamma   111.29756474
_symmetry_Int_Tables_number   1
_chemical_formula_structural   Cd2P6O17
_chemical_formula_sum   'Cd4 P12 O34'
_cell_volume   741.35397241
_cell_formula_units_Z   2
loop_
 _symmetry_equiv_pos_site_id
 _symmetry_equiv_pos_as_xyz
  1  'x, y, z'
loop_
 _atom_site_type_symbol
 _atom_site_label
 _atom_site_symmetry_multiplicity
 _atom_site_fract_x
 _atom_site_fract_y
 _atom_site_fract_z
 _atom_site_occupancy
  O  O0  1  0.92617969  0.16010917  0.98785018  1
  O  O1  1  0.57382031  0.33989083  0.48785018  1
  O  O2  1  0.07382031  0.83989083  0.01214982  1
  O  O3  1  0.42617969  0.66010917  0.51214982  1
  O  O4  1  0.54272935  0.27618523  0.98916895  1
  O  O5  1  0.95727065  0.22381477  0.48916895  1
  O  O6  1  0.45727065  0.72381477  0.01083105  1
  O  O7  1  0.04272935  0.77618523  0.51083105  1
  O  O8  1  0.00000000  0.50000000  0.00000000  1
  O  O9  1  0.50000000  0.00000000  0.50000000  1
  O  O10  1  0.85160279  0.34303738  0.88268177  1
  O  O11  1  0.64839721  0.15696262  0.38268177  1
  O  O12  1  0.14839721  0.65696262  0.11731823  1
  O  O13  1  0.35160279  0.84303738  0.61731823  1
  O  O14  1  0.62518263  0.57800391  0.86099856  1
  O  O15  1  0.87481737  0.92199609  0.36099856  1
  O  O16  1  0.85551382  0.46029477  0.76126883  1
  O  O17  1  0.64448618  0.03970523  0.26126883  1
  O  O18  1  0.14448618  0.53970523  0.23873117  1
  O  O19  1  0.35551382  0.96029477  0.73873117  1
  O  O20  1  0.53581827  0.46920420  0.66486644  1
  O  O21  1  0.96418173  0.03079580  0.16486644  1
  O  O22  1  0.46418173  0.53079580  0.33513356  1
  O  O23  1  0.03581827  0.96920420  0.83513356  1
  O  O24  1  0.98155008  0.46102121  0.63043106  1
  O  O25  1  0.51844992  0.03897879  0.13043106  1
  O  O26  1  0.01844992  0.53897879  0.36956894  1
  O  O27  1  0.48155008  0.96102121  0.86956894  1
  O  O28  1  0.93008532  0.74931694  0.68724826  1
  O  O29  1  0.56991468  0.75068306  0.18724826  1
  O  O30  1  0.06991468  0.25068306  0.31275174  1
  O  O31  1  0.43008532  0.24931694  0.81275174  1
  O  O32  1  0.12518263  0.07800391  0.63900144  1
  O  O33  1  0.37481737  0.42199609  0.13900144  1
  P  P34  1  0.81281144  0.30523453  0.97032186  1
  P  P35  1  0.68718856  0.19476547  0.47032186  1
  P  P36  1  0.18718856  0.69476547  0.02967814  1
  P  P37  1  0.31281144  0.80523453  0.52967814  1
  P  P38  1  0.68192295  0.41890406  0.83182528  1
  P  P39  1  0.81807705  0.08109594  0.33182528  1
  P  P40  1  0.31807705  0.58109594  0.16817472  1
  P  P41  1  0.18192295  0.91890406  0.66817472  1
  P  P42  1  0.31519896  0.02245456  0.82176806  1
  P  P43  1  0.18480104  0.47754544  0.32176806  1
  P  P44  1  0.68480104  0.97754544  0.17823194  1
  P  P45  1  0.81519896  0.52245456  0.67823194  1
  Cd  Cd46  1  0.76091675  0.85606095  0.92705816  1
  Cd  Cd47  1  0.73908325  0.64393905  0.42705816  1
  Cd  Cd48  1  0.23908325  0.14393905  0.07294184  1
  Cd  Cd49  1  0.26091675  0.35606095  0.57294184  1
