# generated using pymatgen
data_Ca2Ge7O16
_symmetry_space_group_name_H-M   'P 1'
_cell_length_a   4.71214765
_cell_length_b   11.50963746
_cell_length_c   11.50456228
_cell_angle_alpha   90.00000000
_cell_angle_beta   90.00000000
_cell_angle_gamma   90.00000000
_symmetry_Int_Tables_number   1
_chemical_formula_structural   Ca2Ge7O16
_chemical_formula_sum   'Ca4 Ge14 O32'
_cell_volume   623.95121352
_cell_formula_units_Z   2
loop_
 _symmetry_equiv_pos_site_id
 _symmetry_equiv_pos_as_xyz
  1  'x, y, z'
loop_
 _atom_site_type_symbol
 _atom_site_label
 _atom_site_symmetry_multiplicity
 _atom_site_fract_x
 _atom_site_fract_y
 _atom_site_fract_z
 _atom_site_occupancy
  O  O0  1  0.83323893  0.93194749  0.35972655  1
  O  O1  1  0.83323893  0.06805251  0.64027345  1
  O  O2  1  0.83323893  0.56805251  0.85972655  1
  O  O3  1  0.83323893  0.43194749  0.14027345  1
  O  O4  1  0.15783701  0.63999173  0.06795394  1
  O  O5  1  0.15783701  0.36000827  0.93204606  1
  O  O6  1  0.15783701  0.86000827  0.56795394  1
  O  O7  1  0.15783701  0.13999173  0.43204606  1
  O  O8  1  0.71939599  0.71977925  0.47253316  1
  O  O9  1  0.71939599  0.28022075  0.52746684  1
  O  O10  1  0.71939599  0.78022075  0.97253316  1
  O  O11  1  0.71939599  0.21977925  0.02746684  1
  O  O12  1  0.24308613  0.61724100  0.49976045  1
  O  O13  1  0.24308613  0.38275900  0.50023955  1
  O  O14  1  0.24308613  0.88275900  0.99976045  1
  O  O15  1  0.24308613  0.11724100  0.00023955  1
  O  O16  1  0.26447474  0.76633768  0.32976653  1
  O  O17  1  0.26447474  0.23366232  0.67023347  1
  O  O18  1  0.74808107  0.00043998  0.11699427  1
  O  O19  1  0.74808107  0.99956002  0.88300573  1
  O  O20  1  0.74808107  0.49956002  0.61699427  1
  O  O21  1  0.74808107  0.50043998  0.38300573  1
  O  O22  1  0.27127934  0.02740270  0.21930746  1
  O  O23  1  0.27127934  0.97259730  0.78069254  1
  O  O24  1  0.27127934  0.47259730  0.71930746  1
  O  O25  1  0.27127934  0.52740270  0.28069254  1
  O  O26  1  0.72638904  0.16994850  0.26643294  1
  O  O27  1  0.72638904  0.83005150  0.73356706  1
  O  O28  1  0.72638904  0.33005150  0.76643294  1
  O  O29  1  0.72638904  0.66994850  0.23356706  1
  O  O30  1  0.26447474  0.26633768  0.17023347  1
  O  O31  1  0.26447474  0.73366232  0.82976653  1
  Ca  Ca32  1  0.49645485  0.83534228  0.16476051  1
  Ca  Ca33  1  0.49645485  0.16465772  0.83523949  1
  Ca  Ca34  1  0.49645485  0.66465772  0.66476051  1
  Ca  Ca35  1  0.49645485  0.33534228  0.33523949  1
  Ge  Ge36  1  0.00557124  0.81256084  0.43364319  1
  Ge  Ge37  1  0.00557124  0.18743916  0.56635681  1
  Ge  Ge38  1  0.00557124  0.68743916  0.93364319  1
  Ge  Ge39  1  0.00557124  0.31256084  0.06635681  1
  Ge  Ge40  1  0.98575745  0.56623610  0.18750548  1
  Ge  Ge41  1  0.98575745  0.43376390  0.81249452  1
  Ge  Ge42  1  0.98575745  0.93376390  0.68750548  1
  Ge  Ge43  1  0.98575745  0.06623610  0.31249452  1
  Ge  Ge44  1  0.49566637  0.63382737  0.36626962  1
  Ge  Ge45  1  0.49566637  0.36617263  0.63373038  1
  Ge  Ge46  1  0.49566637  0.86617263  0.86626962  1
  Ge  Ge47  1  0.49566637  0.13382737  0.13373038  1
  Ge  Ge48  1  0.99593568  0.50000000  0.50000000  1
  Ge  Ge49  1  0.99593568  0.00000000  0.00000000  1
