# generated using pymatgen
data_CuClF10
_symmetry_space_group_name_H-M   'P 1'
_cell_length_a   5.31096829
_cell_length_b   7.53743978
_cell_length_c   9.37753670
_cell_angle_alpha   90.00000000
_cell_angle_beta   90.00000000
_cell_angle_gamma   99.94330946
_symmetry_Int_Tables_number   1
_chemical_formula_structural   CuClF10
_chemical_formula_sum   'Cu2 Cl2 F20'
_cell_volume   369.75439546
_cell_formula_units_Z   2
loop_
 _symmetry_equiv_pos_site_id
 _symmetry_equiv_pos_as_xyz
  1  'x, y, z'
loop_
 _atom_site_type_symbol
 _atom_site_label
 _atom_site_symmetry_multiplicity
 _atom_site_fract_x
 _atom_site_fract_y
 _atom_site_fract_z
 _atom_site_occupancy
  Cu  Cu0  1  0.00000000  0.50000000  0.50000000  1
  Cu  Cu1  1  0.00000000  -0.00000000  -0.00000000  1
  Cl  Cl2  1  0.50000000  0.50000000  -0.00000000  1
  Cl  Cl3  1  0.50000000  -0.00000000  0.50000000  1
  F  F4  1  0.38331701  0.61752490  0.12718210  1
  F  F5  1  0.61668299  0.38247510  0.87281790  1
  F  F6  1  0.26661560  0.53733452  0.89049406  1
  F  F7  1  0.31351478  0.31026911  0.05883471  1
  F  F8  1  0.73338440  0.96266548  0.39049406  1
  F  F9  1  0.10428363  0.39427236  0.34978768  1
  F  F10  1  0.31351478  0.81026911  0.44116529  1
  F  F11  1  0.23361471  0.92336685  0.89582303  1
  F  F12  1  0.38331701  0.11752490  0.37281790  1
  F  F13  1  0.89571637  0.60572764  0.65021232  1
  F  F14  1  0.23361471  0.42336685  0.60417697  1
  F  F15  1  0.73338440  0.46266548  0.10950594  1
  F  F16  1  0.61668299  0.88247510  0.62718210  1
  F  F17  1  0.68648522  0.18973089  0.55883471  1
  F  F18  1  0.89571637  0.10572764  0.84978768  1
  F  F19  1  0.10428363  0.89427236  0.15021232  1
  F  F20  1  0.26661560  0.03733452  0.60950594  1
  F  F21  1  0.76638529  0.57663315  0.39582303  1
  F  F22  1  0.76638529  0.07663315  0.10417697  1
  F  F23  1  0.68648522  0.68973089  0.94116529  1
