# generated using pymatgen
data_Ti(SeO3)2
_symmetry_space_group_name_H-M   'P 1'
_cell_length_a   4.87599053
_cell_length_b   6.90407036
_cell_length_c   8.44663465
_cell_angle_alpha   90.00000000
_cell_angle_beta   90.00000000
_cell_angle_gamma   109.35456592
_symmetry_Int_Tables_number   1
_chemical_formula_structural   Ti(SeO3)2
_chemical_formula_sum   'Ti2 Se4 O12'
_cell_volume   268.27927260
_cell_formula_units_Z   2
loop_
 _symmetry_equiv_pos_site_id
 _symmetry_equiv_pos_as_xyz
  1  'x, y, z'
loop_
 _atom_site_type_symbol
 _atom_site_label
 _atom_site_symmetry_multiplicity
 _atom_site_fract_x
 _atom_site_fract_y
 _atom_site_fract_z
 _atom_site_occupancy
  O  O0  1  0.73605112  0.90375076  0.84683699  1
  O  O1  1  0.76394888  0.59624924  0.34683699  1
  O  O2  1  0.26394888  0.09624924  0.15316301  1
  O  O3  1  0.23605112  0.40375076  0.65316301  1
  O  O4  1  0.15570331  0.75595225  0.94868460  1
  O  O5  1  0.34429669  0.74404775  0.44868460  1
  O  O6  1  0.08573594  0.32971353  0.33809284  1
  O  O7  1  0.41426406  0.17028647  0.83809284  1
  O  O8  1  0.91426406  0.67028647  0.66190716  1
  O  O9  1  0.58573594  0.82971353  0.16190716  1
  O  O10  1  0.65570331  0.25595225  0.55131540  1
  O  O11  1  0.84429669  0.24404775  0.05131540  1
  Ti  Ti12  1  0.00000000  0.50000000  0.50000000  1
  Ti  Ti13  1  0.50000000  0.00000000  0.00000000  1
  Se  Se14  1  0.68019849  0.82052833  0.35984484  1
  Se  Se15  1  0.81980151  0.67947167  0.85984484  1
  Se  Se16  1  0.31980151  0.17947167  0.64015516  1
  Se  Se17  1  0.18019849  0.32052833  0.14015516  1
