# generated using pymatgen
data_SICl7
_symmetry_space_group_name_H-M   'P 1'
_cell_length_a   8.87678993
_cell_length_b   10.58883476
_cell_length_c   13.04998808
_cell_angle_alpha   90.00000000
_cell_angle_beta   90.00000000
_cell_angle_gamma   108.02627179
_symmetry_Int_Tables_number   1
_chemical_formula_structural   SICl7
_chemical_formula_sum   'S4 I4 Cl28'
_cell_volume   1166.42226343
_cell_formula_units_Z   4
loop_
 _symmetry_equiv_pos_site_id
 _symmetry_equiv_pos_as_xyz
  1  'x, y, z'
loop_
 _atom_site_type_symbol
 _atom_site_label
 _atom_site_symmetry_multiplicity
 _atom_site_fract_x
 _atom_site_fract_y
 _atom_site_fract_z
 _atom_site_occupancy
  S  S0  1  0.23650330  0.13424178  0.08055759  1
  S  S1  1  0.73650330  0.13424178  0.41944241  1
  S  S2  1  0.76349670  0.86575822  0.91944241  1
  S  S3  1  0.26349670  0.86575822  0.58055759  1
  Cl  Cl4  1  0.58638674  0.90233911  0.27917823  1
  Cl  Cl5  1  0.08638674  0.90233911  0.22082177  1
  Cl  Cl6  1  0.41361326  0.09766089  0.72082177  1
  Cl  Cl7  1  0.91361326  0.09766089  0.77917823  1
  Cl  Cl8  1  0.44450114  0.09784857  0.10560437  1
  Cl  Cl9  1  0.05549886  0.90215143  0.60560437  1
  Cl  Cl10  1  0.55549886  0.90215143  0.89439563  1
  Cl  Cl11  1  0.94450114  0.09784857  0.39439563  1
  Cl  Cl12  1  0.24902371  0.27467356  0.18896239  1
  Cl  Cl13  1  0.25097629  0.72532644  0.68896239  1
  Cl  Cl14  1  0.75097629  0.72532644  0.81103761  1
  Cl  Cl15  1  0.74902371  0.27467356  0.31103761  1
  Cl  Cl16  1  0.28758327  0.24653749  0.95149218  1
  Cl  Cl17  1  0.21241673  0.75346251  0.45149218  1
  Cl  Cl18  1  0.71241673  0.75346251  0.04850782  1
  Cl  Cl19  1  0.78758327  0.24653749  0.54850782  1
  Cl  Cl20  1  0.13504500  0.88924765  0.95130683  1
  Cl  Cl21  1  0.36495500  0.11075235  0.45130683  1
  Cl  Cl22  1  0.86495500  0.11075235  0.04869317  1
  Cl  Cl23  1  0.63504500  0.88924765  0.54869317  1
  Cl  Cl24  1  0.16554657  0.58779225  0.25000131  1
  Cl  Cl25  1  0.33445343  0.41220775  0.75000131  1
  Cl  Cl26  1  0.83445343  0.41220775  0.74999869  1
  Cl  Cl27  1  0.66554657  0.58779225  0.24999869  1
  Cl  Cl28  1  0.22783146  0.58421641  0.97848161  1
  Cl  Cl29  1  0.27216854  0.41578359  0.47848161  1
  Cl  Cl30  1  0.77216854  0.41578359  0.02151839  1
  Cl  Cl31  1  0.72783146  0.58421641  0.52151839  1
  I  I32  1  0.65403637  0.73227071  0.39790753  1
  I  I33  1  0.84596363  0.26772929  0.89790753  1
  I  I34  1  0.34596363  0.26772929  0.60209247  1
  I  I35  1  0.15403637  0.73227071  0.10209247  1
