# generated using pymatgen
data_P2PtO7
_symmetry_space_group_name_H-M   'P 1'
_cell_length_a   7.20355972
_cell_length_b   8.04002507
_cell_length_c   9.42763240
_cell_angle_alpha   90.00000000
_cell_angle_beta   111.71380824
_cell_angle_gamma   90.00000000
_symmetry_Int_Tables_number   1
_chemical_formula_structural   P2PtO7
_chemical_formula_sum   'P8 Pt4 O28'
_cell_volume   507.27472393
_cell_formula_units_Z   4
loop_
 _symmetry_equiv_pos_site_id
 _symmetry_equiv_pos_as_xyz
  1  'x, y, z'
loop_
 _atom_site_type_symbol
 _atom_site_label
 _atom_site_symmetry_multiplicity
 _atom_site_fract_x
 _atom_site_fract_y
 _atom_site_fract_z
 _atom_site_occupancy
  O  O0  1  0.03137339  0.36677867  0.18094627  1
  O  O1  1  0.46862661  0.86677867  0.31905373  1
  O  O2  1  0.96862661  0.63322133  0.81905373  1
  O  O3  1  0.53137339  0.13322133  0.68094627  1
  O  O4  1  0.24147815  0.14106698  0.11833556  1
  O  O5  1  0.25852185  0.64106698  0.38166444  1
  O  O6  1  0.75852185  0.85893302  0.88166444  1
  O  O7  1  0.74147815  0.35893302  0.61833556  1
  O  O8  1  0.40261933  0.31365609  0.34472647  1
  O  O9  1  0.09738067  0.81365609  0.15527353  1
  O  O10  1  0.59738067  0.68634391  0.65527353  1
  O  O11  1  0.90261933  0.18634391  0.84472647  1
  O  O12  1  0.32193131  0.39920341  0.59968738  1
  O  O13  1  0.17806869  0.89920341  0.90031262  1
  O  O14  1  0.67806869  0.60079659  0.40031262  1
  O  O15  1  0.82193131  0.10079659  0.09968738  1
  O  O16  1  0.43484248  0.28745240  0.87821520  1
  O  O17  1  0.06515752  0.78745240  0.62178480  1
  O  O18  1  0.56515752  0.71254760  0.12178480  1
  O  O19  1  0.93484248  0.21254760  0.37821520  1
  O  O20  1  0.17890059  0.13811517  0.67581048  1
  O  O21  1  0.32109941  0.63811517  0.82418952  1
  O  O22  1  0.82109941  0.86188483  0.32418952  1
  O  O23  1  0.67890059  0.36188483  0.17581048  1
  O  O24  1  0.77731165  0.04001021  0.57878229  1
  O  O25  1  0.72268835  0.54001021  0.92121771  1
  O  O26  1  0.22268835  0.95998979  0.42121771  1
  O  O27  1  0.27731165  0.45998979  0.07878229  1
  P  P28  1  0.86325705  0.25183537  0.20656641  1
  P  P29  1  0.63674295  0.75183537  0.29343359  1
  P  P30  1  0.13674295  0.74816463  0.79343359  1
  P  P31  1  0.36325705  0.24816463  0.70656641  1
  P  P32  1  0.24786784  0.31966066  0.17999376  1
  P  P33  1  0.25213216  0.81966066  0.32000624  1
  P  P34  1  0.75213216  0.68033934  0.82000624  1
  P  P35  1  0.74786784  0.18033934  0.67999376  1
  Pt  Pt36  1  0.00000000  0.00000000  0.50000000  1
  Pt  Pt37  1  0.50000000  0.50000000  0.00000000  1
  Pt  Pt38  1  0.50000000  0.50000000  0.50000000  1
  Pt  Pt39  1  0.00000000  0.00000000  0.00000000  1
