# generated using pymatgen
data_Nd2(SO4)3
_symmetry_space_group_name_H-M   'P 1'
_cell_length_a   6.75250932
_cell_length_b   7.00254927
_cell_length_c   11.34984375
_cell_angle_alpha   106.34759829
_cell_angle_beta   107.30579665
_cell_angle_gamma   90.00000003
_symmetry_Int_Tables_number   1
_chemical_formula_structural   Nd2(SO4)3
_chemical_formula_sum   'Nd4 S6 O24'
_cell_volume   489.60772652
_cell_formula_units_Z   2
loop_
 _symmetry_equiv_pos_site_id
 _symmetry_equiv_pos_as_xyz
  1  'x, y, z'
loop_
 _atom_site_type_symbol
 _atom_site_label
 _atom_site_symmetry_multiplicity
 _atom_site_fract_x
 _atom_site_fract_y
 _atom_site_fract_z
 _atom_site_occupancy
  O  O0  1  0.40898589  0.14362426  0.88813927  1
  O  O1  1  0.52084663  0.35637574  0.11186073  1
  O  O2  1  0.59101411  0.85637574  0.11186073  1
  O  O3  1  0.47915337  0.64362426  0.88813927  1
  O  O4  1  0.84939777  0.87428977  0.70558989  1
  O  O5  1  0.14380788  0.62571023  0.29441011  1
  O  O6  1  0.15060223  0.12571023  0.29441011  1
  O  O7  1  0.85619212  0.37428977  0.70558989  1
  O  O8  1  0.19127052  0.39034343  0.95258723  1
  O  O9  1  0.23868328  0.10965657  0.04741277  1
  O  O10  1  0.46305341  0.80195892  0.30397143  1
  O  O11  1  0.15908197  0.69804108  0.69602857  1
  O  O12  1  0.53694659  0.19804108  0.69602857  1
  O  O13  1  0.84091803  0.30195892  0.30397143  1
  O  O14  1  0.60223840  0.21012537  0.49831890  1
  O  O15  1  0.10391949  0.28987463  0.50168110  1
  O  O16  1  0.39776160  0.78987463  0.50168110  1
  O  O17  1  0.89608051  0.71012537  0.49831890  1
  O  O18  1  0.51790086  0.50442164  0.64572807  1
  O  O19  1  0.87217279  0.99557836  0.35427193  1
  O  O20  1  0.48209914  0.49557836  0.35427193  1
  O  O21  1  0.12782721  0.00442164  0.64572807  1
  O  O22  1  0.76131672  0.89034343  0.95258723  1
  O  O23  1  0.80872948  0.60965657  0.04741277  1
  S  S24  1  0.33442142  0.25000000  0.00000000  1
  S  S25  1  0.66557858  0.75000000  0.00000000  1
  S  S26  1  1.00002710  0.82173380  0.63351938  1
  S  S27  1  0.36650772  0.67826620  0.36648062  1
  S  S28  1  -0.00002710  0.17826620  0.36648062  1
  S  S29  1  0.63349228  0.32173380  0.63351938  1
  Nd  Nd30  1  0.77820023  0.63102106  0.26385466  1
  Nd  Nd31  1  0.51434557  0.86897894  0.73614534  1
  Nd  Nd32  1  0.22179977  0.36897894  0.73614534  1
  Nd  Nd33  1  0.48565443  0.13102106  0.26385466  1
