# generated using pymatgen
data_P2PdO6
_symmetry_space_group_name_H-M   'P 1'
_cell_length_a   4.39417826
_cell_length_b   4.70774663
_cell_length_c   12.57111252
_cell_angle_alpha   90.00000000
_cell_angle_beta   90.00000000
_cell_angle_gamma   90.00000000
_symmetry_Int_Tables_number   1
_chemical_formula_structural   P2PdO6
_chemical_formula_sum   'P4 Pd2 O12'
_cell_volume   260.05455548
_cell_formula_units_Z   2
loop_
 _symmetry_equiv_pos_site_id
 _symmetry_equiv_pos_as_xyz
  1  'x, y, z'
loop_
 _atom_site_type_symbol
 _atom_site_label
 _atom_site_symmetry_multiplicity
 _atom_site_fract_x
 _atom_site_fract_y
 _atom_site_fract_z
 _atom_site_occupancy
  O  O0  1  0.75000000  0.63951771  0.75000000  1
  O  O1  1  0.25000000  0.36048229  0.75000000  1
  O  O2  1  0.25000000  0.36048229  0.25000000  1
  O  O3  1  0.75000000  0.63951771  0.25000000  1
  O  O4  1  0.83777790  0.26404617  0.88601225  1
  O  O5  1  0.33777790  0.73595383  0.61398775  1
  O  O6  1  0.83777790  0.26404617  0.11398775  1
  O  O7  1  0.33777790  0.73595383  0.38601225  1
  O  O8  1  0.66222210  0.26404617  0.38601225  1
  O  O9  1  0.16222210  0.73595383  0.11398775  1
  O  O10  1  0.16222210  0.73595383  0.88601225  1
  O  O11  1  0.66222210  0.26404617  0.61398775  1
  P  P12  1  0.50000000  0.50000000  0.67225816  1
  P  P13  1  0.00000000  0.50000000  0.82774184  1
  P  P14  1  0.50000000  0.50000000  0.32774184  1
  P  P15  1  0.00000000  0.50000000  0.17225816  1
  Pd  Pd16  1  0.50000000  0.00000000  0.50000000  1
  Pd  Pd17  1  0.00000000  0.00000000  0.00000000  1
