# generated using pymatgen
data_CsSbF4
_symmetry_space_group_name_H-M   'P 1'
_cell_length_a   6.46961168
_cell_length_b   9.82805312
_cell_length_c   16.12393408
_cell_angle_alpha   90.00000000
_cell_angle_beta   90.00000000
_cell_angle_gamma   90.00000000
_symmetry_Int_Tables_number   1
_chemical_formula_structural   CsSbF4
_chemical_formula_sum   'Cs8 Sb8 F32'
_cell_volume   1025.21918189
_cell_formula_units_Z   8
loop_
 _symmetry_equiv_pos_site_id
 _symmetry_equiv_pos_as_xyz
  1  'x, y, z'
loop_
 _atom_site_type_symbol
 _atom_site_label
 _atom_site_symmetry_multiplicity
 _atom_site_fract_x
 _atom_site_fract_y
 _atom_site_fract_z
 _atom_site_occupancy
  F  F0  1  0.21951254  0.83875767  0.45218845  1
  F  F1  1  0.21951254  0.16124233  0.54781155  1
  F  F2  1  0.78048746  0.33875767  0.04781155  1
  F  F3  1  0.78048746  0.66124233  0.95218845  1
  F  F4  1  0.78048746  0.16124233  0.54781155  1
  F  F5  1  0.78048746  0.83875767  0.45218845  1
  F  F6  1  0.21951254  0.66124233  0.95218845  1
  F  F7  1  0.21951254  0.33875767  0.04781155  1
  F  F8  1  0.00000000  0.16164569  0.40265191  1
  F  F9  1  0.00000000  0.83835431  0.59734809  1
  F  F10  1  0.00000000  0.66164569  0.09734809  1
  F  F11  1  0.00000000  0.33835431  0.90265191  1
  F  F12  1  0.25642089  0.62069069  0.58321935  1
  F  F13  1  0.25642089  0.37930931  0.41678065  1
  F  F14  1  0.74357911  0.12069069  0.91678065  1
  F  F15  1  0.74357911  0.87930931  0.08321935  1
  F  F16  1  0.50000000  0.11483586  0.78221715  1
  F  F17  1  0.50000000  0.88516414  0.21778285  1
  F  F18  1  0.50000000  0.61483586  0.71778285  1
  F  F19  1  0.50000000  0.38516414  0.28221715  1
  F  F20  1  0.27685074  0.89140304  0.79493378  1
  F  F21  1  0.27685074  0.10859696  0.20506622  1
  F  F22  1  0.72314926  0.39140304  0.70506622  1
  F  F23  1  0.72314926  0.60859696  0.29493378  1
  F  F24  1  0.72314926  0.10859696  0.20506622  1
  F  F25  1  0.72314926  0.89140304  0.79493378  1
  F  F26  1  0.27685074  0.60859696  0.29493378  1
  F  F27  1  0.27685074  0.39140304  0.70506622  1
  F  F28  1  0.25642089  0.12069069  0.91678065  1
  F  F29  1  0.25642089  0.87930931  0.08321935  1
  F  F30  1  0.74357911  0.62069069  0.58321935  1
  F  F31  1  0.74357911  0.37930931  0.41678065  1
  Sb  Sb32  1  0.00000000  0.28485708  0.49919406  1
  Sb  Sb33  1  0.00000000  0.71514292  0.50080594  1
  Sb  Sb34  1  0.00000000  0.78485708  1.00080594  1
  Sb  Sb35  1  0.00000000  0.21514292  -0.00080594  1
  Sb  Sb36  1  0.50000000  0.52657541  0.36954505  1
  Sb  Sb37  1  0.50000000  0.47342459  0.63045495  1
  Sb  Sb38  1  0.50000000  0.02657541  0.13045495  1
  Sb  Sb39  1  0.50000000  0.97342459  0.86954505  1
  Cs  Cs40  1  0.50000000  0.90904045  0.61551671  1
  Cs  Cs41  1  0.50000000  0.09095955  0.38448329  1
  Cs  Cs42  1  0.50000000  0.40904045  0.88448329  1
  Cs  Cs43  1  0.50000000  0.59095955  0.11551671  1
  Cs  Cs44  1  0.00000000  0.14249188  0.73900533  1
  Cs  Cs45  1  0.00000000  0.85750812  0.26099467  1
  Cs  Cs46  1  0.00000000  0.64249188  0.76099467  1
  Cs  Cs47  1  0.00000000  0.35750812  0.23900533  1
