# generated using pymatgen
data_Ba3(GaS3)2
_symmetry_space_group_name_H-M   'P 1'
_cell_length_a   8.61455957
_cell_length_b   8.61455957
_cell_length_c   9.22970654
_cell_angle_alpha   90.92137036
_cell_angle_beta   90.92137036
_cell_angle_gamma   115.67570833
_symmetry_Int_Tables_number   1
_chemical_formula_structural   Ba3(GaS3)2
_chemical_formula_sum   'Ba6 Ga4 S12'
_cell_volume   617.03001216
_cell_formula_units_Z   2
loop_
 _symmetry_equiv_pos_site_id
 _symmetry_equiv_pos_as_xyz
  1  'x, y, z'
loop_
 _atom_site_type_symbol
 _atom_site_label
 _atom_site_symmetry_multiplicity
 _atom_site_fract_x
 _atom_site_fract_y
 _atom_site_fract_z
 _atom_site_occupancy
  S  S0  1  0.08562018  0.46977758  0.83466398  1
  S  S1  1  0.53022242  0.91437982  0.66533602  1
  S  S2  1  0.91437982  0.53022242  0.16533602  1
  S  S3  1  0.46977758  0.08562018  0.33466398  1
  S  S4  1  0.63104836  0.72925626  0.33253422  1
  S  S5  1  0.27074374  0.36895164  0.16746578  1
  S  S6  1  0.36895164  0.27074374  0.66746578  1
  S  S7  1  0.72925626  0.63104836  0.83253422  1
  S  S8  1  0.08019080  0.79761482  0.54070315  1
  S  S9  1  0.20238518  0.91980920  0.95929685  1
  S  S10  1  0.79761482  0.08019080  0.04070315  1
  S  S11  1  0.91980920  0.20238518  0.45929685  1
  Ga  Ga12  1  0.34573859  0.01991730  0.56771924  1
  Ga  Ga13  1  0.98008270  0.65426141  0.93228076  1
  Ga  Ga14  1  0.65426141  0.98008270  0.43228076  1
  Ga  Ga15  1  0.01991730  0.34573859  0.06771924  1
  Ba  Ba16  1  0.03541377  0.96458623  0.25000000  1
  Ba  Ba17  1  0.96458623  0.03541377  0.75000000  1
  Ba  Ba18  1  0.45835521  0.73411999  0.00942849  1
  Ba  Ba19  1  0.26588001  0.54164479  0.49057151  1
  Ba  Ba20  1  0.54164479  0.26588001  0.99057151  1
  Ba  Ba21  1  0.73411999  0.45835521  0.50942849  1
