# generated using pymatgen
data_Y2InCl7
_symmetry_space_group_name_H-M   'P 1'
_cell_length_a   6.98600137
_cell_length_b   12.71176032
_cell_length_c   13.23125842
_cell_angle_alpha   90.00000000
_cell_angle_beta   90.00000000
_cell_angle_gamma   90.00000000
_symmetry_Int_Tables_number   1
_chemical_formula_structural   Y2InCl7
_chemical_formula_sum   'Y8 In4 Cl28'
_cell_volume   1174.99363459
_cell_formula_units_Z   4
loop_
 _symmetry_equiv_pos_site_id
 _symmetry_equiv_pos_as_xyz
  1  'x, y, z'
loop_
 _atom_site_type_symbol
 _atom_site_label
 _atom_site_symmetry_multiplicity
 _atom_site_fract_x
 _atom_site_fract_y
 _atom_site_fract_z
 _atom_site_occupancy
  Cl  Cl0  1  0.99095029  0.45535918  0.36929685  1
  Cl  Cl1  1  0.49095029  0.54464082  0.63070315  1
  Cl  Cl2  1  0.00904971  0.95535918  0.13070315  1
  Cl  Cl3  1  0.50904971  0.04464082  0.86929685  1
  Cl  Cl4  1  0.00904971  0.54464082  0.63070315  1
  Cl  Cl5  1  0.50904971  0.45535918  0.36929685  1
  Cl  Cl6  1  0.99095029  0.04464082  0.86929685  1
  Cl  Cl7  1  0.49095029  0.95535918  0.13070315  1
  Cl  Cl8  1  0.01104953  0.41605667  0.12071351  1
  Cl  Cl9  1  0.51104953  0.58394333  0.87928649  1
  Cl  Cl10  1  0.98895047  0.91605667  0.37928649  1
  Cl  Cl11  1  0.48895047  0.08394333  0.62071351  1
  Cl  Cl12  1  0.25000000  0.68374299  0.39233322  1
  Cl  Cl13  1  0.75000000  0.31625701  0.60766678  1
  Cl  Cl14  1  0.75000000  0.18374299  0.10766678  1
  Cl  Cl15  1  0.25000000  0.81625701  0.89233322  1
  Cl  Cl16  1  0.49179304  0.68832769  0.17340280  1
  Cl  Cl17  1  0.99179304  0.31167231  0.82659720  1
  Cl  Cl18  1  0.50820696  0.18832769  0.32659720  1
  Cl  Cl19  1  0.00820696  0.81167231  0.67340280  1
  Cl  Cl20  1  0.50820696  0.31167231  0.82659720  1
  Cl  Cl21  1  0.00820696  0.68832769  0.17340280  1
  Cl  Cl22  1  0.49179304  0.81167231  0.67340280  1
  Cl  Cl23  1  0.99179304  0.18832769  0.32659720  1
  Cl  Cl24  1  0.51104953  0.91605667  0.37928649  1
  Cl  Cl25  1  0.01104953  0.08394333  0.62071351  1
  Cl  Cl26  1  0.48895047  0.41605667  0.12071351  1
  Cl  Cl27  1  0.98895047  0.58394333  0.87928649  1
  Y  Y28  1  0.25000000  0.96480871  0.73695964  1
  Y  Y29  1  0.75000000  0.03519129  0.26304036  1
  Y  Y30  1  0.75000000  0.46480871  0.76304036  1
  Y  Y31  1  0.25000000  0.53519129  0.23695964  1
  Y  Y32  1  0.25000000  0.66244175  0.74811896  1
  Y  Y33  1  0.75000000  0.33755825  0.25188104  1
  Y  Y34  1  0.75000000  0.16244175  0.75188104  1
  Y  Y35  1  0.25000000  0.83755825  0.24811896  1
  In  In36  1  0.25000000  0.30173281  0.53900165  1
  In  In37  1  0.75000000  0.69826719  0.46099835  1
  In  In38  1  0.75000000  0.80173281  0.96099835  1
  In  In39  1  0.25000000  0.19826719  0.03900165  1
