# generated using pymatgen
data_TlSbF4
_symmetry_space_group_name_H-M   'P 1'
_cell_length_a   7.10768211
_cell_length_b   7.67893950
_cell_length_c   8.48320243
_cell_angle_alpha   98.19828348
_cell_angle_beta   90.00000000
_cell_angle_gamma   90.00000000
_symmetry_Int_Tables_number   1
_chemical_formula_structural   TlSbF4
_chemical_formula_sum   'Tl4 Sb4 F16'
_cell_volume   458.27690094
_cell_formula_units_Z   4
loop_
 _symmetry_equiv_pos_site_id
 _symmetry_equiv_pos_as_xyz
  1  'x, y, z'
loop_
 _atom_site_type_symbol
 _atom_site_label
 _atom_site_symmetry_multiplicity
 _atom_site_fract_x
 _atom_site_fract_y
 _atom_site_fract_z
 _atom_site_occupancy
  F  F0  1  0.66005118  0.59177308  0.68716765  1
  F  F1  1  0.16005118  0.40822692  0.81283235  1
  F  F2  1  0.33994882  0.40822692  0.31283235  1
  F  F3  1  0.83994882  0.59177308  0.18716765  1
  F  F4  1  0.88887909  0.11743980  0.80257587  1
  F  F5  1  0.38887909  0.88256020  0.69742413  1
  F  F6  1  0.11112091  0.88256020  0.19742413  1
  F  F7  1  0.61112091  0.11743980  0.30257587  1
  F  F8  1  0.93791382  0.25104631  0.20709285  1
  F  F9  1  0.43791382  0.74895369  0.29290715  1
  F  F10  1  0.06208618  0.74895369  0.79290715  1
  F  F11  1  0.56208618  0.25104631  0.70709285  1
  F  F12  1  0.60490662  0.31718016  0.06207357  1
  F  F13  1  0.10490662  0.68281984  0.43792643  1
  F  F14  1  0.39509338  0.68281984  0.93792643  1
  F  F15  1  0.89509338  0.31718016  0.56207357  1
  Sb  Sb16  1  0.79998241  0.37252480  0.78503626  1
  Sb  Sb17  1  0.29998241  0.62747520  0.71496374  1
  Sb  Sb18  1  0.20001759  0.62747520  0.21496374  1
  Sb  Sb19  1  0.70001759  0.37252480  0.28503626  1
  Tl  Tl20  1  0.24900936  0.12479223  0.95441068  1
  Tl  Tl21  1  0.74900936  0.87520777  0.54558932  1
  Tl  Tl22  1  0.75099064  0.87520777  0.04558932  1
  Tl  Tl23  1  0.25099064  0.12479223  0.45441068  1
