# generated using pymatgen
data_Cs3CoBr5
_symmetry_space_group_name_H-M   'P 1'
_cell_length_a   9.92731880
_cell_length_b   9.92731879
_cell_length_c   10.38093310
_cell_angle_alpha   118.56474714
_cell_angle_beta   118.56474715
_cell_angle_gamma   90.00000001
_symmetry_Int_Tables_number   1
_chemical_formula_structural   Cs3CoBr5
_chemical_formula_sum   'Cs6 Co2 Br10'
_cell_volume   753.69756233
_cell_formula_units_Z   2
loop_
 _symmetry_equiv_pos_site_id
 _symmetry_equiv_pos_as_xyz
  1  'x, y, z'
loop_
 _atom_site_type_symbol
 _atom_site_label
 _atom_site_symmetry_multiplicity
 _atom_site_fract_x
 _atom_site_fract_y
 _atom_site_fract_z
 _atom_site_occupancy
  Co  Co0  1  0.25000000  0.75000000  0.50000000  1
  Co  Co1  1  0.75000000  0.25000000  0.50000000  1
  Br  Br2  1  0.98076894  0.48076894  0.68733592  1
  Br  Br3  1  0.01923106  0.51923106  0.31266408  1
  Br  Br4  1  0.70656698  0.20656698  0.68733592  1
  Br  Br5  1  0.50000000  0.50000000  0.00000000  1
  Br  Br6  1  0.20656698  0.98076894  0.68733592  1
  Br  Br7  1  0.48076894  0.70656698  0.68733592  1
  Br  Br8  1  0.00000000  0.00000000  0.00000000  1
  Br  Br9  1  0.29343302  0.79343302  0.31266408  1
  Br  Br10  1  0.51923106  0.29343302  0.31266408  1
  Br  Br11  1  0.79343302  0.01923106  0.31266408  1
  Cs  Cs12  1  0.25000000  0.25000000  0.50000000  1
  Cs  Cs13  1  0.33334181  0.83334181  0.00000000  1
  Cs  Cs14  1  0.16665819  0.33334181  0.00000000  1
  Cs  Cs15  1  0.83334181  0.66665819  0.00000000  1
  Cs  Cs16  1  0.66665819  0.16665819  0.00000000  1
  Cs  Cs17  1  0.75000000  0.75000000  0.50000000  1
