# generated using pymatgen
data_Sr3Sb4S9
_symmetry_space_group_name_H-M   'P 1'
_cell_length_a   4.06263253
_cell_length_b   16.72342353
_cell_length_c   24.48134333
_cell_angle_alpha   90.00000000
_cell_angle_beta   90.00000000
_cell_angle_gamma   90.00000000
_symmetry_Int_Tables_number   1
_chemical_formula_structural   Sr3Sb4S9
_chemical_formula_sum   'Sr12 Sb16 S36'
_cell_volume   1663.28999379
_cell_formula_units_Z   4
loop_
 _symmetry_equiv_pos_site_id
 _symmetry_equiv_pos_as_xyz
  1  'x, y, z'
loop_
 _atom_site_type_symbol
 _atom_site_label
 _atom_site_symmetry_multiplicity
 _atom_site_fract_x
 _atom_site_fract_y
 _atom_site_fract_z
 _atom_site_occupancy
  S  S0  1  0.78668195  0.64097471  0.19238226  1
  S  S1  1  0.28668195  0.35902529  0.80761774  1
  S  S2  1  0.28668195  0.85902529  0.69238226  1
  S  S3  1  0.78668195  0.14097471  0.30761774  1
  S  S4  1  0.76668661  0.56114365  0.03748916  1
  S  S5  1  0.26668661  0.43885635  0.96251084  1
  S  S6  1  0.26668661  0.93885635  0.53748916  1
  S  S7  1  0.76668661  0.06114365  0.46251084  1
  S  S8  1  0.25590848  0.45162337  0.13830677  1
  S  S9  1  0.75590848  0.54837663  0.86169323  1
  S  S10  1  0.75590848  0.04837663  0.63830677  1
  S  S11  1  0.25590848  0.95162337  0.36169323  1
  S  S12  1  0.25483507  0.25193709  0.09344711  1
  S  S13  1  0.75483507  0.74806291  0.90655289  1
  S  S14  1  0.75483507  0.24806291  0.59344711  1
  S  S15  1  0.77254259  0.56395873  0.42785638  1
  S  S16  1  0.25483507  0.75193709  0.40655289  1
  S  S17  1  0.27815176  0.13271805  0.84700863  1
  S  S18  1  0.27815176  0.63271805  0.65299137  1
  S  S19  1  0.77815176  0.36728195  0.34700863  1
  S  S20  1  0.25710880  0.54178217  0.30021904  1
  S  S21  1  0.75710880  0.45821783  0.69978096  1
  S  S22  1  0.75710880  0.95821783  0.80021904  1
  S  S23  1  0.25710880  0.04178217  0.19978096  1
  S  S24  1  0.24759246  0.79719681  0.27382341  1
  S  S25  1  0.74759246  0.20280319  0.72617659  1
  S  S26  1  0.74759246  0.70280319  0.77382341  1
  S  S27  1  0.24759246  0.29719681  0.22617659  1
  S  S28  1  0.25527970  0.25621121  0.46820376  1
  S  S29  1  0.75527970  0.74378879  0.53179624  1
  S  S30  1  0.75527970  0.24378879  0.96820376  1
  S  S31  1  0.25527970  0.75621121  0.03179624  1
  S  S32  1  0.77254259  0.06395873  0.07214362  1
  S  S33  1  0.27254259  0.93604127  0.92785638  1
  S  S34  1  0.27254259  0.43604127  0.57214362  1
  S  S35  1  0.77815176  0.86728195  0.15299137  1
  Sr  Sr36  1  0.75633804  0.37808915  0.05513652  1
  Sr  Sr37  1  0.25633804  0.62191085  0.94486348  1
  Sr  Sr38  1  0.25633804  0.12191085  0.55513652  1
  Sr  Sr39  1  0.75633804  0.87808915  0.44486348  1
  Sr  Sr40  1  0.75750534  0.17485283  0.17602787  1
  Sr  Sr41  1  0.25750534  0.82514717  0.82397213  1
  Sr  Sr42  1  0.25750534  0.32514717  0.67602787  1
  Sr  Sr43  1  0.75750534  0.67485283  0.32397213  1
  Sr  Sr44  1  0.76019614  0.44344129  0.23354250  1
  Sr  Sr45  1  0.26019614  0.55655871  0.76645750  1
  Sr  Sr46  1  0.26019614  0.05655871  0.73354250  1
  Sr  Sr47  1  0.76019614  0.94344129  0.26645750  1
  Sb  Sb48  1  0.72723179  0.83240043  0.98874073  1
  Sb  Sb49  1  0.22723179  0.16759957  0.01125927  1
  Sb  Sb50  1  0.22723179  0.66759957  0.48874073  1
  Sb  Sb51  1  0.72723179  0.33240043  0.51125927  1
  Sb  Sb52  1  0.23687792  0.09092388  0.39452104  1
  Sb  Sb53  1  0.73687792  0.90907612  0.60547896  1
  Sb  Sb54  1  0.73687792  0.40907612  0.89452104  1
  Sb  Sb55  1  0.23687792  0.59092388  0.10547896  1
  Sb  Sb56  1  0.20568362  0.25699978  0.32250959  1
  Sb  Sb57  1  0.70568362  0.74300022  0.67749041  1
  Sb  Sb58  1  0.70568362  0.24300022  0.82250959  1
  Sb  Sb59  1  0.20568362  0.75699978  0.17749041  1
  Sb  Sb60  1  0.20947974  0.47251957  0.38917395  1
  Sb  Sb61  1  0.70947974  0.52748043  0.61082605  1
  Sb  Sb62  1  0.70947974  0.02748043  0.88917395  1
  Sb  Sb63  1  0.20947974  0.97251957  0.11082605  1
