# generated using pymatgen
data_Ga2CuCl8
_symmetry_space_group_name_H-M   'P 1'
_cell_length_a   6.91094830
_cell_length_b   7.74048950
_cell_length_c   12.77231441
_cell_angle_alpha   90.00000000
_cell_angle_beta   95.76206721
_cell_angle_gamma   90.00000000
_symmetry_Int_Tables_number   1
_chemical_formula_structural   Ga2CuCl8
_chemical_formula_sum   'Ga4 Cu2 Cl16'
_cell_volume   679.79159467
_cell_formula_units_Z   2
loop_
 _symmetry_equiv_pos_site_id
 _symmetry_equiv_pos_as_xyz
  1  'x, y, z'
loop_
 _atom_site_type_symbol
 _atom_site_label
 _atom_site_symmetry_multiplicity
 _atom_site_fract_x
 _atom_site_fract_y
 _atom_site_fract_z
 _atom_site_occupancy
  Cl  Cl0  1  0.35386207  0.02186217  0.63817386  1
  Cl  Cl1  1  0.64613793  0.52186217  0.86182614  1
  Cl  Cl2  1  0.64613793  0.97813783  0.36182614  1
  Cl  Cl3  1  0.35386207  0.47813783  0.13817386  1
  Cl  Cl4  1  0.89250538  0.26630250  0.58990187  1
  Cl  Cl5  1  0.10749462  0.76630250  0.91009813  1
  Cl  Cl6  1  0.28971507  0.01222181  0.10649973  1
  Cl  Cl7  1  0.71028493  0.51222181  0.39350027  1
  Cl  Cl8  1  0.71028493  0.98777819  0.89350027  1
  Cl  Cl9  1  0.28971507  0.48777819  0.60649973  1
  Cl  Cl10  1  0.16664754  0.22260569  0.34872506  1
  Cl  Cl11  1  0.83335246  0.72260569  0.15127494  1
  Cl  Cl12  1  0.83335246  0.77739431  0.65127494  1
  Cl  Cl13  1  0.16664754  0.27739431  0.84872506  1
  Cl  Cl14  1  0.89250538  0.23369750  0.08990187  1
  Cl  Cl15  1  0.10749462  0.73369750  0.41009813  1
  Cu  Cu16  1  0.00000000  0.00000000  0.00000000  1
  Cu  Cu17  1  0.00000000  0.50000000  0.50000000  1
  Ga  Ga18  1  0.80853516  0.76058166  0.31673686  1
  Ga  Ga19  1  0.19146484  0.26058166  0.18326314  1
  Ga  Ga20  1  0.80853516  0.73941834  0.81673686  1
  Ga  Ga21  1  0.19146484  0.23941834  0.68326314  1
