# generated using pymatgen
data_Ba4Ti13O30
_symmetry_space_group_name_H-M   'P 1'
_cell_length_a   9.97681650
_cell_length_b   9.97681649
_cell_length_c   14.20742808
_cell_angle_alpha   90.00000000
_cell_angle_beta   90.00000000
_cell_angle_gamma   119.96590177
_symmetry_Int_Tables_number   1
_chemical_formula_structural   Ba4Ti13O30
_chemical_formula_sum   'Ba8 Ti26 O60'
_cell_volume   1225.12156903
_cell_formula_units_Z   2
loop_
 _symmetry_equiv_pos_site_id
 _symmetry_equiv_pos_as_xyz
  1  'x, y, z'
loop_
 _atom_site_type_symbol
 _atom_site_label
 _atom_site_symmetry_multiplicity
 _atom_site_fract_x
 _atom_site_fract_y
 _atom_site_fract_z
 _atom_site_occupancy
  O  O0  1  0.34957067  0.86052471  0.06844038  1
  O  O1  1  0.15042933  0.63947529  0.56844038  1
  O  O2  1  0.36052471  0.84957067  0.43155962  1
  O  O3  1  0.13947529  0.65042933  0.93155962  1
  O  O4  1  0.65042933  0.13947529  0.93155962  1
  O  O5  1  0.84957067  0.36052471  0.43155962  1
  O  O6  1  0.63947529  0.15042933  0.56844038  1
  O  O7  1  0.86052471  0.34957067  0.06844038  1
  O  O8  1  0.68538111  0.02975960  0.40523514  1
  O  O9  1  0.81461889  0.47024040  0.90523514  1
  O  O10  1  0.52975960  0.18538111  0.09476486  1
  O  O11  1  0.97024040  0.31461889  0.59476486  1
  O  O12  1  0.31461889  0.97024040  0.59476486  1
  O  O13  1  0.18538111  0.52975960  0.09476486  1
  O  O14  1  0.47024040  0.81461889  0.90523514  1
  O  O15  1  0.02975960  0.68538111  0.40523514  1
  O  O16  1  0.85991158  0.85991158  0.40427618  1
  O  O17  1  0.64008842  0.64008842  0.90427618  1
  O  O18  1  0.35991158  0.35991158  0.09572382  1
  O  O19  1  0.14008842  0.14008842  0.59572382  1
  O  O20  1  0.16292873  0.98841373  0.42443292  1
  O  O21  1  0.33707127  0.51158627  0.92443292  1
  O  O22  1  0.48841373  0.66292873  0.07556708  1
  O  O23  1  0.01158627  0.83707127  0.57556708  1
  O  O24  1  0.83707127  0.01158627  0.57556708  1
  O  O25  1  0.66292873  0.48841373  0.07556708  1
  O  O26  1  0.51158627  0.33707127  0.92443292  1
  O  O27  1  0.98841373  0.16292873  0.42443292  1
  O  O28  1  0.48783921  0.98783921  0.25000000  1
  O  O29  1  0.01216079  0.51216079  0.75000000  1
  O  O30  1  0.51216079  0.01216079  0.75000000  1
  O  O31  1  0.98783921  0.48783921  0.25000000  1
  O  O32  1  0.67344333  0.35662415  0.26600767  1
  O  O33  1  0.82655667  0.14337585  0.76600767  1
  O  O34  1  0.85662415  0.17344333  0.23399233  1
  O  O35  1  0.64337585  0.32655667  0.73399233  1
  O  O36  1  0.32655667  0.64337585  0.73399233  1
  O  O37  1  0.17344333  0.85662415  0.23399233  1
  O  O38  1  0.14337585  0.82655667  0.76600767  1
  O  O39  1  0.35662415  0.67344333  0.26600767  1
  O  O40  1  0.35402048  0.17993181  0.23276715  1
  O  O41  1  0.14597952  0.32006819  0.73276715  1
  O  O42  1  0.67993181  0.85402048  0.26723285  1
  O  O43  1  0.82006819  0.64597952  0.76723285  1
  O  O44  1  0.64597952  0.82006819  0.76723285  1
  O  O45  1  0.85402048  0.67993181  0.26723285  1
  O  O46  1  0.32006819  0.14597952  0.73276715  1
  O  O47  1  0.17993181  0.35402048  0.23276715  1
  O  O48  1  0.52559460  0.69282929  0.41675900  1
  O  O49  1  0.97440540  0.80717071  0.91675900  1
  O  O50  1  0.19282929  0.02559460  0.08324100  1
  O  O51  1  0.30717071  0.47440540  0.58324100  1
  O  O52  1  0.47440540  0.30717071  0.58324100  1
  O  O53  1  0.02559460  0.19282929  0.08324100  1
  O  O54  1  0.80717071  0.97440540  0.91675900  1
  O  O55  1  0.69282929  0.52559460  0.41675900  1
  O  O56  1  0.01833920  0.01833920  0.24946920  1
  O  O57  1  0.48166080  0.48166080  0.74946920  1
  O  O58  1  0.51833920  0.51833920  0.25053080  1
  O  O59  1  0.98166080  0.98166080  0.75053080  1
  Ti  Ti60  1  0.81602829  0.18397171  0.50000000  1
  Ti  Ti61  1  0.68397171  0.31602829  0.00000000  1
  Ti  Ti62  1  0.18397171  0.81602829  0.50000000  1
  Ti  Ti63  1  0.31602829  0.68397171  0.00000000  1
  Ti  Ti64  1  0.00000000  0.00000000  0.50000000  1
  Ti  Ti65  1  0.50000000  0.50000000  0.00000000  1
  Ti  Ti66  1  0.50121968  0.85174758  0.33549831  1
  Ti  Ti67  1  0.99878032  0.64825242  0.83549831  1
  Ti  Ti68  1  0.35174758  0.00121968  0.16450169  1
  Ti  Ti69  1  0.14825242  0.49878032  0.66450169  1
  Ti  Ti70  1  0.49878032  0.14825242  0.66450169  1
  Ti  Ti71  1  0.00121968  0.35174758  0.16450169  1
  Ti  Ti72  1  0.64825242  0.99878032  0.83549831  1
  Ti  Ti73  1  0.85174758  0.50121968  0.33549831  1
  Ti  Ti74  1  0.85307685  0.03644970  0.31922866  1
  Ti  Ti75  1  0.64692315  0.46355030  0.81922866  1
  Ti  Ti76  1  0.53644970  0.35307685  0.18077134  1
  Ti  Ti77  1  0.96355030  0.14692315  0.68077134  1
  Ti  Ti78  1  0.14692315  0.96355030  0.68077134  1
  Ti  Ti79  1  0.35307685  0.53644970  0.18077134  1
  Ti  Ti80  1  0.46355030  0.64692315  0.81922866  1
  Ti  Ti81  1  0.03644970  0.85307685  0.31922866  1
  Ti  Ti82  1  0.66291137  0.66291137  0.34740616  1
  Ti  Ti83  1  0.83708863  0.83708863  0.84740616  1
  Ti  Ti84  1  0.16291137  0.16291137  0.15259384  1
  Ti  Ti85  1  0.33708863  0.33708863  0.65259384  1
  Ba  Ba86  1  0.47836988  0.18478636  0.40966470  1
  Ba  Ba87  1  0.02163012  0.31521364  0.90966470  1
  Ba  Ba88  1  0.68478636  0.97836988  0.09033530  1
  Ba  Ba89  1  0.81521364  0.52163012  0.59033530  1
  Ba  Ba90  1  0.52163012  0.81521364  0.59033530  1
  Ba  Ba91  1  0.97836988  0.68478636  0.09033530  1
  Ba  Ba92  1  0.31521364  0.02163012  0.90966470  1
  Ba  Ba93  1  0.18478636  0.47836988  0.40966470  1
