# generated using pymatgen
data_VOF3
_symmetry_space_group_name_H-M   'P 1'
_cell_length_a   5.11303032
_cell_length_b   11.79443433
_cell_length_c   4.85559407
_cell_angle_alpha   90.00000000
_cell_angle_beta   90.00000000
_cell_angle_gamma   90.00000000
_symmetry_Int_Tables_number   1
_chemical_formula_structural   VOF3
_chemical_formula_sum   'V4 O4 F12'
_cell_volume   292.81805870
_cell_formula_units_Z   4
loop_
 _symmetry_equiv_pos_site_id
 _symmetry_equiv_pos_as_xyz
  1  'x, y, z'
loop_
 _atom_site_type_symbol
 _atom_site_label
 _atom_site_symmetry_multiplicity
 _atom_site_fract_x
 _atom_site_fract_y
 _atom_site_fract_z
 _atom_site_occupancy
  V  V0  1  0.00000000  0.09408857  0.25000000  1
  V  V1  1  0.00000000  0.92916413  0.75000000  1
  V  V2  1  0.50000000  0.59408857  0.25000000  1
  V  V3  1  0.50000000  0.42916413  0.75000000  1
  O  O4  1  0.17097754  0.04251011  0.53921513  1
  O  O5  1  0.32902246  0.54251011  0.53921513  1
  O  O6  1  0.67097754  0.54251011  0.96078487  1
  O  O7  1  0.82902246  0.04251011  0.96078487  1
  F  F8  1  0.21721775  0.82491668  0.62326268  1
  F  F9  1  0.22483621  0.18728569  0.10566485  1
  F  F10  1  0.23238945  0.94988217  0.04568757  1
  F  F11  1  0.26761055  0.44988217  0.04568757  1
  F  F12  1  0.27516379  0.68728569  0.10566485  1
  F  F13  1  0.28278225  0.32491668  0.62326268  1
  F  F14  1  0.71721775  0.32491668  0.87673732  1
  F  F15  1  0.72483621  0.68728569  0.39433515  1
  F  F16  1  0.73238945  0.44988217  0.45431243  1
  F  F17  1  0.76761055  0.94988217  0.45431243  1
  F  F18  1  0.77516379  0.18728569  0.39433515  1
  F  F19  1  0.78278225  0.82491668  0.87673732  1
