# generated using pymatgen
data_TeSeO4
_symmetry_space_group_name_H-M   'P 1'
_cell_length_a   4.47625399
_cell_length_b   6.84548369
_cell_length_c   7.62262298
_cell_angle_alpha   116.53475570
_cell_angle_beta   107.10313780
_cell_angle_gamma   90.32276918
_symmetry_Int_Tables_number   1
_chemical_formula_structural   TeSeO4
_chemical_formula_sum   'Te2 Se2 O8'
_cell_volume   197.14758373
_cell_formula_units_Z   2
loop_
 _symmetry_equiv_pos_site_id
 _symmetry_equiv_pos_as_xyz
  1  'x, y, z'
loop_
 _atom_site_type_symbol
 _atom_site_label
 _atom_site_symmetry_multiplicity
 _atom_site_fract_x
 _atom_site_fract_y
 _atom_site_fract_z
 _atom_site_occupancy
  Te  Te0  1  0.36989817  0.11109064  0.22032778  1
  Te  Te1  1  0.64778595  0.89155970  0.78200541  1
  Se  Se2  1  0.88193531  0.37310751  0.75255409  1
  Se  Se3  1  0.63149886  0.62114828  0.24843468  1
  O  O4  1  0.69957962  0.05447011  0.09713494  1
  O  O5  1  0.34804458  0.42151625  0.22348644  1
  O  O6  1  0.82668800  0.24971137  0.49135390  1
  O  O7  1  0.62063303  0.19562423  0.77256319  1
  O  O8  1  0.35422344  0.78824685  0.20916036  1
  O  O9  1  0.83171021  0.75769095  0.51045445  1
  O  O10  1  0.64037780  0.57696935  0.78856703  1
  O  O11  1  0.10172503  0.95746474  0.90505773  1
