# generated using pymatgen
data_La3(ReO5)2
_symmetry_space_group_name_H-M   'P 1'
_cell_length_a   5.59231780
_cell_length_b   5.59231781
_cell_length_c   7.22979074
_cell_angle_alpha   72.68868449
_cell_angle_beta   72.68868445
_cell_angle_gamma   89.49897243
_symmetry_Int_Tables_number   1
_chemical_formula_structural   La3(ReO5)2
_chemical_formula_sum   'La3 Re2 O10'
_cell_volume   205.29303516
_cell_formula_units_Z   1
loop_
 _symmetry_equiv_pos_site_id
 _symmetry_equiv_pos_as_xyz
  1  'x, y, z'
loop_
 _atom_site_type_symbol
 _atom_site_label
 _atom_site_symmetry_multiplicity
 _atom_site_fract_x
 _atom_site_fract_y
 _atom_site_fract_z
 _atom_site_occupancy
  O  O0  1  0.33347428  0.33347428  0.46878710  1
  O  O1  1  0.66652572  0.66652572  0.53121290  1
  O  O2  1  0.87054458  0.39509194  0.78747168  1
  O  O3  1  0.60490806  0.12945542  0.21252832  1
  O  O4  1  0.12945542  0.60490806  0.21252832  1
  O  O5  1  0.64895242  0.64895242  0.09264472  1
  O  O6  1  0.35104758  0.35104758  0.90735528  1
  O  O7  1  0.90483617  0.90483617  0.71841311  1
  O  O8  1  0.09516383  0.09516383  0.28158689  1
  O  O9  1  0.39509194  0.87054458  0.78747168  1
  La  La10  1  0.74307647  0.25692353  0.50000000  1
  La  La11  1  0.25692353  0.74307647  0.50000000  1
  La  La12  1  0.00000000  0.00000000  0.00000000  1
  Re  Re13  1  0.36667777  0.36667777  0.17466497  1
  Re  Re14  1  0.63332223  0.63332223  0.82533503  1
