# generated using pymatgen
data_Sc7(CCl5)2
_symmetry_space_group_name_H-M   'P 1'
_cell_length_a   3.52433883
_cell_length_b   9.69998425
_cell_length_c   12.02827680
_cell_angle_alpha   100.26145175
_cell_angle_beta   90.00000000
_cell_angle_gamma   100.46688716
_symmetry_Int_Tables_number   1
_chemical_formula_structural   Sc7(CCl5)2
_chemical_formula_sum   'Sc7 C2 Cl10'
_cell_volume   397.66648568
_cell_formula_units_Z   1
loop_
 _symmetry_equiv_pos_site_id
 _symmetry_equiv_pos_as_xyz
  1  'x, y, z'
loop_
 _atom_site_type_symbol
 _atom_site_label
 _atom_site_symmetry_multiplicity
 _atom_site_fract_x
 _atom_site_fract_y
 _atom_site_fract_z
 _atom_site_occupancy
  C  C0  1  0.73982851  0.47965702  0.62389218  1
  C  C1  1  0.26017149  0.52034298  0.37610782  1
  Cl  Cl2  1  0.54676154  0.09352308  0.87975517  1
  Cl  Cl3  1  0.45323846  0.90647692  0.12024483  1
  Cl  Cl4  1  0.21423850  0.42847701  0.86915959  1
  Cl  Cl5  1  0.78576150  0.57152299  0.13084041  1
  Cl  Cl6  1  0.87764506  0.75529013  0.86561852  1
  Cl  Cl7  1  0.92429229  0.84858459  0.37436010  1
  Cl  Cl8  1  0.07570771  0.15141541  0.62563990  1
  Cl  Cl9  1  0.59829575  0.19659150  0.38549318  1
  Cl  Cl10  1  0.40170425  0.80340850  0.61450682  1
  Cl  Cl11  1  0.12235494  0.24470987  0.13438148  1
  Sc  Sc12  1  0.18255926  0.36511851  0.50633057  1
  Sc  Sc13  1  0.81744074  0.63488149  0.49366943  1
  Sc  Sc14  1  0.30013582  0.60027163  0.72065765  1
  Sc  Sc15  1  0.69986418  0.39972837  0.27934235  1
  Sc  Sc16  1  0.65777272  0.31554545  0.72783366  1
  Sc  Sc17  1  0.34222728  0.68445455  0.27216634  1
  Sc  Sc18  1  0.00000000  0.00000000  0.00000000  1
