# generated using pymatgen
data_Si2H6S
_symmetry_space_group_name_H-M   'P 1'
_cell_length_a   8.48450218
_cell_length_b   9.20337732
_cell_length_c   15.49630066
_cell_angle_alpha   90.00000000
_cell_angle_beta   90.00000000
_cell_angle_gamma   90.00000000
_symmetry_Int_Tables_number   1
_chemical_formula_structural   Si2H6S
_chemical_formula_sum   'Si16 H48 S8'
_cell_volume   1210.04529455
_cell_formula_units_Z   8
loop_
 _symmetry_equiv_pos_site_id
 _symmetry_equiv_pos_as_xyz
  1  'x, y, z'
loop_
 _atom_site_type_symbol
 _atom_site_label
 _atom_site_symmetry_multiplicity
 _atom_site_fract_x
 _atom_site_fract_y
 _atom_site_fract_z
 _atom_site_occupancy
  H  H0  1  0.89041148  0.62852866  0.28492540  1
  H  H1  1  0.39041148  0.37147134  0.21507460  1
  H  H2  1  0.60958852  0.12852866  0.21507460  1
  H  H3  1  0.10958852  0.87147134  0.28492540  1
  H  H4  1  0.10958852  0.37147134  0.71507460  1
  H  H5  1  0.60958852  0.62852866  0.78492540  1
  H  H6  1  0.39041148  0.87147134  0.78492540  1
  H  H7  1  0.89041148  0.12852866  0.71507460  1
  H  H8  1  0.87003572  0.36885276  0.25026426  1
  H  H9  1  0.37003572  0.63114724  0.24973574  1
  H  H10  1  0.62996428  0.86885276  0.24973574  1
  H  H11  1  0.12996428  0.13114724  0.25026426  1
  H  H12  1  0.12996428  0.63114724  0.74973574  1
  H  H13  1  0.62996428  0.36885276  0.75026426  1
  H  H14  1  0.37003572  0.13114724  0.75026426  1
  H  H15  1  0.87003572  0.86885276  0.74973574  1
  H  H16  1  0.06129226  0.52076712  0.17492306  1
  H  H17  1  0.62886545  0.42644681  0.96505817  1
  H  H18  1  0.56129226  0.47923288  0.32507694  1
  H  H19  1  0.93870774  0.97923288  0.17492306  1
  H  H20  1  0.93870774  0.47923288  0.82507694  1
  H  H21  1  0.43870774  0.52076712  0.67492306  1
  H  H22  1  0.56129226  0.97923288  0.67492306  1
  H  H23  1  0.06129226  0.02076712  0.82507694  1
  H  H24  1  0.90573405  0.88184479  -0.00215856  1
  H  H25  1  0.40573405  0.11815521  0.50215856  1
  H  H26  1  0.59426595  0.38184479  0.50215856  1
  H  H27  1  0.09426595  0.61815521  -0.00215856  1
  H  H28  1  0.09426595  0.11815521  1.00215856  1
  H  H29  1  0.59426595  0.88184479  0.49784144  1
  H  H30  1  0.40573405  0.61815521  0.49784144  1
  H  H31  1  0.90573405  0.38184479  1.00215856  1
  H  H32  1  0.69747043  0.75722346  0.91894533  1
  H  H33  1  0.19747043  0.24277654  0.58105467  1
  H  H34  1  0.80252957  0.25722346  0.58105467  1
  H  H35  1  0.30252957  0.74277654  0.91894533  1
  H  H36  1  0.30252957  0.24277654  0.08105467  1
  H  H37  1  0.80252957  0.75722346  0.41894533  1
  H  H38  1  0.19747043  0.74277654  0.41894533  1
  H  H39  1  0.69747043  0.25722346  0.08105467  1
  H  H40  1  0.62886545  0.92644681  0.03494183  1
  H  H41  1  0.12886545  0.07355319  0.46505817  1
  H  H42  1  0.87113455  0.42644681  0.46505817  1
  H  H43  1  0.37113455  0.57355319  0.03494183  1
  H  H44  1  0.37113455  0.07355319  0.96505817  1
  H  H45  1  0.87113455  0.92644681  0.53494183  1
  H  H46  1  0.12886545  0.57355319  0.53494183  1
  H  H47  1  0.43870774  0.02076712  0.32507694  1
  Si  Si48  1  0.90204513  0.51702282  0.21567325  1
  Si  Si49  1  0.40204513  0.48297718  0.28432675  1
  Si  Si50  1  0.59795487  0.01702282  0.28432675  1
  Si  Si51  1  0.09795487  0.98297718  0.21567325  1
  Si  Si52  1  0.09795487  0.48297718  0.78432675  1
  Si  Si53  1  0.59795487  0.51702282  0.71567325  1
  Si  Si54  1  0.40204513  0.98297718  0.71567325  1
  Si  Si55  1  0.90204513  0.01702282  0.78432675  1
  Si  Si56  1  0.24184306  0.10553473  0.53598903  1
  Si  Si57  1  0.75815694  0.39446527  0.53598903  1
  Si  Si58  1  0.25815694  0.60553473  0.96401097  1
  Si  Si59  1  0.25815694  0.10553473  0.03598903  1
  Si  Si60  1  0.74184306  0.89446527  0.96401097  1
  Si  Si61  1  0.75815694  0.89446527  0.46401097  1
  Si  Si62  1  0.24184306  0.60553473  0.46401097  1
  Si  Si63  1  0.74184306  0.39446527  0.03598903  1
  S  S64  1  0.72294592  0.07653690  0.87682192  1
  S  S65  1  0.22294592  0.92346310  0.62317808  1
  S  S66  1  0.77705408  0.57653690  0.62317808  1
  S  S67  1  0.27705408  0.92346310  0.12317808  1
  S  S68  1  0.77705408  0.07653690  0.37682192  1
  S  S69  1  0.22294592  0.42346310  0.37682192  1
  S  S70  1  0.72294592  0.57653690  0.12317808  1
  S  S71  1  0.27705408  0.42346310  0.87682192  1
