# generated using pymatgen
data_Ta4P4S29
_symmetry_space_group_name_H-M   'P 1'
_cell_length_a   14.11829858
_cell_length_b   15.91845230
_cell_length_c   15.91845230
_cell_angle_alpha   90.00000000
_cell_angle_beta   90.00000000
_cell_angle_gamma   90.00000000
_symmetry_Int_Tables_number   1
_chemical_formula_structural   Ta4P4S29
_chemical_formula_sum   'Ta16 P16 S116'
_cell_volume   3577.53625068
_cell_formula_units_Z   4
loop_
 _symmetry_equiv_pos_site_id
 _symmetry_equiv_pos_as_xyz
  1  'x, y, z'
loop_
 _atom_site_type_symbol
 _atom_site_label
 _atom_site_symmetry_multiplicity
 _atom_site_fract_x
 _atom_site_fract_y
 _atom_site_fract_z
 _atom_site_occupancy
  P  P0  1  0.92035772  0.18330730  0.50723285  1
  P  P1  1  0.67035772  0.99276715  0.68330730  1
  P  P2  1  0.17035772  0.00723285  0.31669270  1
  P  P3  1  0.42035772  0.81669270  0.49276715  1
  P  P4  1  0.32964228  0.68330730  0.99276715  1
  P  P5  1  0.82964228  0.31669270  0.00723285  1
  P  P6  1  0.07964228  0.50723285  0.18330730  1
  P  P7  1  0.57964228  0.49276715  0.81669270  1
  P  P8  1  0.42151676  0.18375105  0.50583253  1
  P  P9  1  0.17151676  0.99416747  0.68375105  1
  P  P10  1  0.67151676  0.00583253  0.31624895  1
  P  P11  1  0.92151676  0.81624895  0.49416747  1
  P  P12  1  0.82848324  0.68375105  0.99416747  1
  P  P13  1  0.32848324  0.31624895  0.00583253  1
  P  P14  1  0.57848324  0.50583253  0.18375105  1
  P  P15  1  0.07848324  0.49416747  0.81624895  1
  S  S16  1  0.95793651  0.25742812  0.02346375  1
  S  S17  1  0.70793651  0.47653625  0.75742812  1
  S  S18  1  0.20793651  0.52346375  0.24257188  1
  S  S19  1  0.45793651  0.74257188  0.97653625  1
  S  S20  1  0.29206349  0.75742812  0.47653625  1
  S  S21  1  0.79206349  0.24257188  0.52346375  1
  S  S22  1  0.04206349  0.02346375  0.25742812  1
  S  S23  1  0.54206349  0.97653625  0.74257188  1
  S  S24  1  0.45582398  0.25509834  0.02221224  1
  S  S25  1  0.20582398  0.47778776  0.75509834  1
  S  S26  1  0.70582398  0.52221224  0.24490166  1
  S  S27  1  0.95582398  0.74490166  0.97778776  1
  S  S28  1  0.79417602  0.75509834  0.47778776  1
  S  S29  1  0.29417602  0.24490166  0.52221224  1
  S  S30  1  0.54417602  0.02221224  0.25509834  1
  S  S31  1  0.04417602  0.97778776  0.74490166  1
  S  S32  1  0.03102696  0.25406466  0.46290265  1
  S  S33  1  0.78102696  0.03709735  0.75406466  1
  S  S34  1  0.28102696  0.96290265  0.24593534  1
  S  S35  1  0.53102696  0.74593534  0.53709735  1
  S  S36  1  0.21897304  0.75406466  0.03709735  1
  S  S37  1  0.71897304  0.24593534  0.96290265  1
  S  S38  1  0.96897304  0.46290265  0.25406466  1
  S  S39  1  0.46897304  0.53709735  0.74593534  1
  S  S40  1  0.53393650  0.25236390  0.46140299  1
  S  S41  1  0.28393650  0.03859701  0.75236390  1
  S  S42  1  0.78393650  0.96140299  0.24763610  1
  S  S43  1  0.03393650  0.74763610  0.53859701  1
  S  S44  1  0.71606350  0.75236390  0.03859701  1
  S  S45  1  0.21606350  0.24763610  0.96140299  1
  S  S46  1  0.46606350  0.46140299  0.25236390  1
  S  S47  1  0.96606350  0.53859701  0.74763610  1
  S  S48  1  0.18568166  0.12483458  0.36842108  1
  S  S49  1  0.93568166  0.13157892  0.62483458  1
  S  S50  1  0.43568166  0.86842108  0.37516542  1
  S  S51  1  0.68568166  0.87516542  0.63157892  1
  S  S52  1  0.06431834  0.62483458  0.13157892  1
  S  S53  1  0.56431834  0.37516542  0.86842108  1
  S  S54  1  0.81431834  0.36842108  0.12483458  1
  S  S55  1  0.31431834  0.63157892  0.87516542  1
  S  S56  1  0.68604018  0.12355664  0.36787000  1
  S  S57  1  0.43604018  0.13213000  0.62355664  1
  S  S58  1  0.93604018  0.86787000  0.37644336  1
  S  S59  1  0.18604018  0.87644336  0.63213000  1
  S  S60  1  0.56395982  0.62355664  0.13213000  1
  S  S61  1  0.06395982  0.37644336  0.86787000  1
  S  S62  1  0.31395982  0.36787000  0.12355664  1
  S  S63  1  0.81395982  0.63213000  0.87644336  1
  S  S64  1  0.07734320  0.41614253  0.08949773  1
  S  S65  1  0.82734320  0.41050227  0.91614253  1
  S  S66  1  0.32734320  0.58949773  0.08385747  1
  S  S67  1  0.57734320  0.58385747  0.91050227  1
  S  S68  1  0.17265680  0.91614253  0.41050227  1
  S  S69  1  0.67265680  0.08385747  0.58949773  1
  S  S70  1  0.92265680  0.08949773  0.41614253  1
  S  S71  1  0.42265680  0.91050227  0.58385747  1
  S  S72  1  0.57760306  0.41511073  0.08946085  1
  S  S73  1  0.32760306  0.41053915  0.91511073  1
  S  S74  1  0.82760306  0.58946085  0.08488927  1
  S  S75  1  0.07760306  0.58488927  0.91053915  1
  S  S76  1  0.67239694  0.91511073  0.41053915  1
  S  S77  1  0.17239694  0.08488927  0.58946085  1
  S  S78  1  0.42239694  0.08946085  0.41511073  1
  S  S79  1  0.92239694  0.91053915  0.58488927  1
  S  S80  1  0.11029949  0.21504064  0.18081996  1
  S  S81  1  0.86029949  0.31918004  0.71504064  1
  S  S82  1  0.36029949  0.68081996  0.28495936  1
  S  S83  1  0.61029949  0.78495936  0.81918004  1
  S  S84  1  0.13970051  0.71504064  0.31918004  1
  S  S85  1  0.63970051  0.28495936  0.68081996  1
  S  S86  1  0.88970051  0.18081996  0.21504064  1
  S  S87  1  0.38970051  0.81918004  0.78495936  1
  S  S88  1  0.61029749  0.21425339  0.17931502  1
  S  S89  1  0.36029749  0.32068498  0.71425339  1
  S  S90  1  0.86029749  0.67931502  0.28574661  1
  S  S91  1  0.11029749  0.78574661  0.82068498  1
  S  S92  1  0.63970251  0.71425339  0.32068498  1
  S  S93  1  0.13970251  0.28574661  0.67931502  1
  S  S94  1  0.38970251  0.17931502  0.21425339  1
  S  S95  1  0.88970251  0.82068498  0.78574661  1
  S  S96  1  0.11421629  0.30237384  0.27475549  1
  S  S97  1  0.86421629  0.22524451  0.80237384  1
  S  S98  1  0.36421629  0.77475549  0.19762616  1
  S  S99  1  0.61421629  0.69762616  0.72524451  1
  S  S100  1  0.13578371  0.80237384  0.22524451  1
  S  S101  1  0.63578371  0.19762616  0.77475549  1
  S  S102  1  0.88578371  0.27475549  0.30237384  1
  S  S103  1  0.38578371  0.72524451  0.69762616  1
  S  S104  1  0.61387278  0.30134759  0.27337891  1
  S  S105  1  0.36387278  0.22662109  0.80134759  1
  S  S106  1  0.86387278  0.77337891  0.19865241  1
  S  S107  1  0.11387278  0.69865241  0.72662109  1
  S  S108  1  0.63612722  0.80134759  0.22662109  1
  S  S109  1  0.13612722  0.19865241  0.77337891  1
  S  S110  1  0.38612722  0.27337891  0.30134759  1
  S  S111  1  0.88612722  0.72662109  0.69865241  1
  S  S112  1  0.65200048  0.55368796  0.52907795  1
  S  S113  1  0.40200048  0.97092205  0.05368796  1
  S  S114  1  0.90200048  0.02907795  0.94631204  1
  S  S115  1  0.15200048  0.44631204  0.47092205  1
  S  S116  1  0.59799952  0.05368796  0.97092205  1
  S  S117  1  0.09799952  0.94631204  0.02907795  1
  S  S118  1  0.34799952  0.52907795  0.55368796  1
  S  S119  1  0.84799952  0.47092205  0.44631204  1
  S  S120  1  0.44904159  0.44529628  0.51107002  1
  S  S121  1  0.19904159  0.98892998  0.94529628  1
  S  S122  1  0.69904159  0.01107002  0.05470372  1
  S  S123  1  0.94904159  0.55470372  0.48892998  1
  S  S124  1  0.80095841  0.94529628  0.98892998  1
  S  S125  1  0.30095841  0.05470372  0.01107002  1
  S  S126  1  0.55095841  0.51107002  0.44529628  1
  S  S127  1  0.05095841  0.48892998  0.55470372  1
  S  S128  1  0.00000000  0.04171438  0.04171438  1
  S  S129  1  0.75000000  0.45828562  0.54171438  1
  S  S130  1  0.25000000  0.54171438  0.45828562  1
  S  S131  1  0.50000000  0.95828562  0.95828562  1
  Ta  Ta132  1  0.77512709  0.17841644  0.67104447  1
  Ta  Ta133  1  0.52512709  0.82895553  0.67841644  1
  Ta  Ta134  1  0.02512709  0.17104447  0.32158356  1
  Ta  Ta135  1  0.27512709  0.82158356  0.32895553  1
  Ta  Ta136  1  0.47487291  0.67841644  0.82895553  1
  Ta  Ta137  1  0.97487291  0.32158356  0.17104447  1
  Ta  Ta138  1  0.22487291  0.67104447  0.17841644  1
  Ta  Ta139  1  0.72487291  0.32895553  0.82158356  1
  Ta  Ta140  1  0.27597328  0.17984933  0.66972295  1
  Ta  Ta141  1  0.02597328  0.83027705  0.67984933  1
  Ta  Ta142  1  0.52597328  0.16972295  0.32015067  1
  Ta  Ta143  1  0.77597328  0.82015067  0.33027705  1
  Ta  Ta144  1  0.97402672  0.67984933  0.83027705  1
  Ta  Ta145  1  0.47402672  0.32015067  0.16972295  1
  Ta  Ta146  1  0.72402672  0.66972295  0.17984933  1
  Ta  Ta147  1  0.22402672  0.33027705  0.82015067  1
