# generated using pymatgen
data_Tl3BS3
_symmetry_space_group_name_H-M   'P 1'
_cell_length_a   5.78985119
_cell_length_b   6.73770161
_cell_length_c   9.99077490
_cell_angle_alpha   90.00000000
_cell_angle_beta   90.00000000
_cell_angle_gamma   98.16032242
_symmetry_Int_Tables_number   1
_chemical_formula_structural   Tl3BS3
_chemical_formula_sum   'Tl6 B2 S6'
_cell_volume   385.79678299
_cell_formula_units_Z   2
loop_
 _symmetry_equiv_pos_site_id
 _symmetry_equiv_pos_as_xyz
  1  'x, y, z'
loop_
 _atom_site_type_symbol
 _atom_site_label
 _atom_site_symmetry_multiplicity
 _atom_site_fract_x
 _atom_site_fract_y
 _atom_site_fract_z
 _atom_site_occupancy
  B  B0  1  0.38774717  0.26073694  0.25000000  1
  B  B1  1  0.61225283  0.73926306  0.75000000  1
  S  S2  1  0.74918450  0.81977741  0.59053263  1
  S  S3  1  0.25081550  0.18022259  0.09053263  1
  S  S4  1  0.25081550  0.18022259  0.40946737  1
  S  S5  1  0.74918450  0.81977741  0.90946737  1
  S  S6  1  0.33459210  0.57196753  0.75000000  1
  S  S7  1  0.66540790  0.42803247  0.25000000  1
  Tl  Tl8  1  0.28589380  0.67125021  0.04848998  1
  Tl  Tl9  1  0.71410620  0.32874979  0.54848998  1
  Tl  Tl10  1  0.71410620  0.32874979  0.95151002  1
  Tl  Tl11  1  0.28589380  0.67125021  0.45151002  1
  Tl  Tl12  1  0.84041678  0.99126332  0.25000000  1
  Tl  Tl13  1  0.15958322  0.00873668  0.75000000  1
