# generated using pymatgen
data_Rb2PuCl5
_symmetry_space_group_name_H-M   'P 1'
_cell_length_a   8.33946874
_cell_length_b   8.90278876
_cell_length_c   13.57398557
_cell_angle_alpha   90.00000000
_cell_angle_beta   90.00000000
_cell_angle_gamma   90.00000000
_symmetry_Int_Tables_number   1
_chemical_formula_structural   Rb2PuCl5
_chemical_formula_sum   'Rb8 Pu4 Cl20'
_cell_volume   1007.79415936
_cell_formula_units_Z   4
loop_
 _symmetry_equiv_pos_site_id
 _symmetry_equiv_pos_as_xyz
  1  'x, y, z'
loop_
 _atom_site_type_symbol
 _atom_site_label
 _atom_site_symmetry_multiplicity
 _atom_site_fract_x
 _atom_site_fract_y
 _atom_site_fract_z
 _atom_site_occupancy
  Cl  Cl0  1  0.34675483  0.96129062  0.07758029  1
  Cl  Cl1  1  0.84675483  0.03870938  0.42241971  1
  Cl  Cl2  1  0.65324517  0.46129062  0.92241971  1
  Cl  Cl3  1  0.15324517  0.53870938  0.57758029  1
  Cl  Cl4  1  0.65324517  0.03870938  0.92241971  1
  Cl  Cl5  1  0.15324517  0.96129062  0.57758029  1
  Cl  Cl6  1  0.34675483  0.53870938  0.07758029  1
  Cl  Cl7  1  0.84675483  0.46129062  0.42241971  1
  Cl  Cl8  1  0.37670986  0.75000000  0.83016214  1
  Cl  Cl9  1  0.87670986  0.25000000  0.66983786  1
  Cl  Cl10  1  0.62329014  0.25000000  0.16983786  1
  Cl  Cl11  1  0.12329014  0.75000000  0.33016214  1
  Cl  Cl12  1  0.89860118  0.75000000  0.98706611  1
  Cl  Cl13  1  0.39860118  0.25000000  0.51293389  1
  Cl  Cl14  1  0.10139882  0.25000000  0.01293389  1
  Cl  Cl15  1  0.60139882  0.75000000  0.48706611  1
  Cl  Cl16  1  0.65925014  0.75000000  0.19237116  1
  Cl  Cl17  1  0.15925014  0.25000000  0.30762884  1
  Cl  Cl18  1  0.34074986  0.25000000  0.80762884  1
  Cl  Cl19  1  0.84074986  0.75000000  0.69237116  1
  Rb  Rb20  1  0.45618049  0.50201350  0.32884995  1
  Rb  Rb21  1  0.95618049  0.49798650  0.17115005  1
  Rb  Rb22  1  0.54381951  0.00201350  0.67115005  1
  Rb  Rb23  1  0.04381951  0.99798650  0.82884995  1
  Rb  Rb24  1  0.95618049  0.00201350  0.17115005  1
  Rb  Rb25  1  0.45618049  0.99798650  0.32884995  1
  Rb  Rb26  1  0.04381951  0.50201350  0.82884995  1
  Rb  Rb27  1  0.54381951  0.49798650  0.67115005  1
  Pu  Pu28  1  0.93906715  0.75000000  0.49852325  1
  Pu  Pu29  1  0.43906715  0.25000000  0.00147675  1
  Pu  Pu30  1  0.06093285  0.25000000  0.50147675  1
  Pu  Pu31  1  0.56093285  0.75000000  0.99852325  1
