# generated using pymatgen
data_K2H5F7
_symmetry_space_group_name_H-M   'P 1'
_cell_length_a   8.42840875
_cell_length_b   8.55120196
_cell_length_c   10.15943005
_cell_angle_alpha   90.00000000
_cell_angle_beta   101.74019358
_cell_angle_gamma   90.00000000
_symmetry_Int_Tables_number   1
_chemical_formula_structural   K2H5F7
_chemical_formula_sum   'K8 H20 F28'
_cell_volume   716.90302804
_cell_formula_units_Z   4
loop_
 _symmetry_equiv_pos_site_id
 _symmetry_equiv_pos_as_xyz
  1  'x, y, z'
loop_
 _atom_site_type_symbol
 _atom_site_label
 _atom_site_symmetry_multiplicity
 _atom_site_fract_x
 _atom_site_fract_y
 _atom_site_fract_z
 _atom_site_occupancy
  H  H0  1  0.87698379  0.02343480  0.21650221  1
  H  H1  1  0.62301621  0.52343480  0.78349779  1
  H  H2  1  0.12301621  0.97656520  0.78349779  1
  H  H3  1  0.37698379  0.47656520  0.21650221  1
  H  H4  1  0.48013596  0.02375313  0.21726293  1
  H  H5  1  0.01986404  0.52375313  0.78273707  1
  H  H6  1  0.51986404  0.97624687  0.78273707  1
  H  H7  1  0.98013596  0.47624687  0.21726293  1
  H  H8  1  0.28858539  0.00141791  0.65187029  1
  H  H9  1  0.21141461  0.50141791  0.34812971  1
  H  H10  1  0.71233421  0.47485069  0.34288547  1
  H  H11  1  0.78766579  0.97485069  0.65711453  1
  H  H12  1  0.28766579  0.52514931  0.65711453  1
  H  H13  1  0.21233421  0.02514931  0.34288547  1
  H  H14  1  0.68182060  0.69317683  0.22563811  1
  H  H15  1  0.81817940  0.19317683  0.77436189  1
  H  H16  1  0.31817940  0.30682317  0.77436189  1
  H  H17  1  0.18182060  0.80682317  0.22563811  1
  H  H18  1  0.71141461  0.99858209  0.34812971  1
  H  H19  1  0.78858539  0.49858209  0.65187029  1
  F  F20  1  0.71105202  0.35265410  0.34191472  1
  F  F21  1  0.15068746  0.00089727  0.65212256  1
  F  F22  1  0.65068746  0.49910273  0.65212256  1
  F  F23  1  0.34931254  0.50089727  0.34787744  1
  F  F24  1  0.07708054  0.50118306  0.35079595  1
  F  F25  1  0.42291946  0.00118306  0.64920405  1
  F  F26  1  0.92291946  0.49881694  0.64920405  1
  F  F27  1  0.57708054  0.99881694  0.35079595  1
  F  F28  1  0.92004695  0.45032254  0.12567113  1
  F  F29  1  0.57995305  0.95032254  0.87432887  1
  F  F30  1  0.07995305  0.54967746  0.87432887  1
  F  F31  1  0.42004695  0.04967746  0.12567113  1
  F  F32  1  0.39103220  0.45247420  0.12333885  1
  F  F33  1  0.10896780  0.95247420  0.87666115  1
  F  F34  1  0.60896780  0.54752580  0.87666115  1
  F  F35  1  0.89103220  0.04752580  0.12333885  1
  F  F36  1  0.28894798  0.64734590  0.65808528  1
  F  F37  1  0.21105202  0.14734590  0.34191472  1
  F  F38  1  0.65655639  0.74612953  0.13415690  1
  F  F39  1  0.84344361  0.24612953  0.86584310  1
  F  F40  1  0.34344361  0.25387047  0.86584310  1
  F  F41  1  0.15655639  0.75387047  0.13415690  1
  F  F42  1  0.71474112  0.62666282  0.34937365  1
  F  F43  1  0.78525888  0.12666282  0.65062635  1
  F  F44  1  0.28525888  0.37333718  0.65062635  1
  F  F45  1  0.21474112  0.87333718  0.34937365  1
  F  F46  1  0.84931254  0.99910273  0.34787744  1
  F  F47  1  0.78894798  0.85265410  0.65808528  1
  K  K48  1  0.13596781  0.22863272  0.03867869  1
  K  K49  1  0.36403219  0.72863272  0.96132131  1
  K  K50  1  0.86403219  0.77136728  0.96132131  1
  K  K51  1  0.63596781  0.27136728  0.03867869  1
  K  K52  1  0.49999256  0.25098496  0.50197807  1
  K  K53  1  1.00000744  0.75098496  0.49802193  1
  K  K54  1  0.50000744  0.74901504  0.49802193  1
  K  K55  1  -0.00000744  0.24901504  0.50197807  1
