# generated using pymatgen
data_NaTi2O4
_symmetry_space_group_name_H-M   'P 1'
_cell_length_a   2.96685686
_cell_length_b   9.34575557
_cell_length_c   10.85562229
_cell_angle_alpha   90.00000000
_cell_angle_beta   90.00000000
_cell_angle_gamma   90.00000000
_symmetry_Int_Tables_number   1
_chemical_formula_structural   NaTi2O4
_chemical_formula_sum   'Na4 Ti8 O16'
_cell_volume   300.99947357
_cell_formula_units_Z   4
loop_
 _symmetry_equiv_pos_site_id
 _symmetry_equiv_pos_as_xyz
  1  'x, y, z'
loop_
 _atom_site_type_symbol
 _atom_site_label
 _atom_site_symmetry_multiplicity
 _atom_site_fract_x
 _atom_site_fract_y
 _atom_site_fract_z
 _atom_site_occupancy
  O  O0  1  0.75000000  0.42091211  0.57089712  1
  O  O1  1  0.25000000  0.57908789  0.42910288  1
  O  O2  1  0.75000000  0.92091211  0.92910288  1
  O  O3  1  0.25000000  0.07908789  0.07089712  1
  O  O4  1  0.75000000  0.02058226  0.28181282  1
  O  O5  1  0.25000000  0.97941774  0.71818718  1
  O  O6  1  0.75000000  0.52058226  0.21818718  1
  O  O7  1  0.25000000  0.47941774  0.78181282  1
  O  O8  1  0.75000000  0.11304032  0.52142288  1
  O  O9  1  0.25000000  0.88695968  0.47857712  1
  O  O10  1  0.75000000  0.61304032  0.97857712  1
  O  O11  1  0.25000000  0.38695968  0.02142288  1
  O  O12  1  0.25000000  0.29144495  0.35096097  1
  O  O13  1  0.75000000  0.70855505  0.64903903  1
  O  O14  1  0.25000000  0.79144495  0.14903903  1
  O  O15  1  0.75000000  0.20855505  0.85096097  1
  Na  Na16  1  0.25000000  0.24283880  0.65356985  1
  Na  Na17  1  0.75000000  0.75716120  0.34643015  1
  Na  Na18  1  0.25000000  0.74283880  0.84643015  1
  Na  Na19  1  0.75000000  0.25716120  0.15356985  1
  Ti  Ti20  1  0.75000000  0.43616201  0.38927189  1
  Ti  Ti21  1  0.25000000  0.56383799  0.61072811  1
  Ti  Ti22  1  0.75000000  0.93616201  0.11072811  1
  Ti  Ti23  1  0.25000000  0.06383799  0.88927189  1
  Ti  Ti24  1  0.25000000  0.08154640  0.39690263  1
  Ti  Ti25  1  0.75000000  0.91845360  0.60309737  1
  Ti  Ti26  1  0.25000000  0.58154640  0.10309737  1
  Ti  Ti27  1  0.75000000  0.41845360  0.89690263  1
