# generated using pymatgen
data_LiGaCl3
_symmetry_space_group_name_H-M   'P 1'
_cell_length_a   6.22659429
_cell_length_b   9.88743110
_cell_length_c   15.31042319
_cell_angle_alpha   90.00000000
_cell_angle_beta   90.00000000
_cell_angle_gamma   90.00000000
_symmetry_Int_Tables_number   1
_chemical_formula_structural   LiGaCl3
_chemical_formula_sum   'Li8 Ga8 Cl24'
_cell_volume   942.58654098
_cell_formula_units_Z   8
loop_
 _symmetry_equiv_pos_site_id
 _symmetry_equiv_pos_as_xyz
  1  'x, y, z'
loop_
 _atom_site_type_symbol
 _atom_site_label
 _atom_site_symmetry_multiplicity
 _atom_site_fract_x
 _atom_site_fract_y
 _atom_site_fract_z
 _atom_site_occupancy
  Li  Li0  1  0.38233536  0.98771981  0.63164283  1
  Li  Li1  1  0.88233536  0.01228019  0.86835717  1
  Li  Li2  1  0.61766464  0.48771981  0.36835717  1
  Li  Li3  1  0.11766464  0.51228019  0.13164283  1
  Li  Li4  1  0.61766464  0.01228019  0.36835717  1
  Li  Li5  1  0.11766464  0.98771981  0.13164283  1
  Li  Li6  1  0.38233536  0.51228019  0.63164283  1
  Li  Li7  1  0.88233536  0.48771981  0.86835717  1
  Cl  Cl8  1  0.05555214  0.75000000  0.84324218  1
  Cl  Cl9  1  0.55555214  0.25000000  0.65675782  1
  Cl  Cl10  1  0.94444786  0.25000000  0.15675782  1
  Cl  Cl11  1  0.44444786  0.75000000  0.34324218  1
  Cl  Cl12  1  0.20507486  0.75000000  0.61164142  1
  Cl  Cl13  1  0.70507486  0.25000000  0.88835858  1
  Cl  Cl14  1  0.79492514  0.25000000  0.38835858  1
  Cl  Cl15  1  0.29492514  0.75000000  0.11164142  1
  Cl  Cl16  1  0.95151716  0.57285845  0.27963015  1
  Cl  Cl17  1  0.45151716  0.42714155  0.22036985  1
  Cl  Cl18  1  0.04848284  0.07285845  0.72036985  1
  Cl  Cl19  1  0.54848284  0.92714155  0.77963015  1
  Cl  Cl20  1  0.04848284  0.42714155  0.72036985  1
  Cl  Cl21  1  0.54848284  0.57285845  0.77963015  1
  Cl  Cl22  1  0.95151716  0.92714155  0.27963015  1
  Cl  Cl23  1  0.45151716  0.07285845  0.22036985  1
  Cl  Cl24  1  0.73270051  0.93218805  0.53128364  1
  Cl  Cl25  1  0.23270051  0.06781195  0.96871636  1
  Cl  Cl26  1  0.26729949  0.43218805  0.46871636  1
  Cl  Cl27  1  0.76729949  0.56781195  0.03128364  1
  Cl  Cl28  1  0.26729949  0.06781195  0.46871636  1
  Cl  Cl29  1  0.76729949  0.93218805  0.03128364  1
  Cl  Cl30  1  0.73270051  0.56781195  0.53128364  1
  Cl  Cl31  1  0.23270051  0.43218805  0.96871636  1
  Ga  Ga32  1  0.55149606  0.75000000  0.00609857  1
  Ga  Ga33  1  0.05149606  0.25000000  0.49390143  1
  Ga  Ga34  1  0.44850394  0.25000000  0.99390143  1
  Ga  Ga35  1  0.94850394  0.75000000  0.50609857  1
  Ga  Ga36  1  0.41545110  0.75000000  0.85804382  1
  Ga  Ga37  1  0.91545110  0.25000000  0.64195618  1
  Ga  Ga38  1  0.58454890  0.25000000  0.14195618  1
  Ga  Ga39  1  0.08454890  0.75000000  0.35804382  1
