# generated using pymatgen
data_Ba3(TaS4)2
_symmetry_space_group_name_H-M   'P 1'
_cell_length_a   6.93931196
_cell_length_b   12.15593033
_cell_length_c   12.74885555
_cell_angle_alpha   109.19259087
_cell_angle_beta   90.00000000
_cell_angle_gamma   90.00000000
_symmetry_Int_Tables_number   1
_chemical_formula_structural   Ba3(TaS4)2
_chemical_formula_sum   'Ba9 Ta6 S24'
_cell_volume   1015.64159618
_cell_formula_units_Z   3
loop_
 _symmetry_equiv_pos_site_id
 _symmetry_equiv_pos_as_xyz
  1  'x, y, z'
loop_
 _atom_site_type_symbol
 _atom_site_label
 _atom_site_symmetry_multiplicity
 _atom_site_fract_x
 _atom_site_fract_y
 _atom_site_fract_z
 _atom_site_occupancy
  S  S0  1  0.75174225  0.31274091  0.80093332  1
  S  S1  1  0.75174225  0.68725909  0.19906668  1
  S  S2  1  0.24825775  0.68725909  0.19906668  1
  S  S3  1  0.24825775  0.31274091  0.80093332  1
  S  S4  1  0.74445861  0.38313619  0.15273659  1
  S  S5  1  0.74445861  0.61686381  0.84726341  1
  S  S6  1  0.25554139  0.61686381  0.84726341  1
  S  S7  1  0.25554139  0.38313619  0.15273659  1
  S  S8  1  0.74460369  0.15199809  0.51588178  1
  S  S9  1  0.74460369  0.84800191  0.48411822  1
  S  S10  1  0.25539631  0.84800191  0.48411822  1
  S  S11  1  0.25539631  0.15199809  0.51588178  1
  S  S12  1  0.75939478  0.09226589  0.14522676  1
  S  S13  1  0.75939478  0.90773411  0.85477324  1
  S  S14  1  0.24060522  0.90773411  0.85477324  1
  S  S15  1  0.50000000  0.05718079  0.70057285  1
  S  S16  1  0.50000000  0.94281921  0.29942715  1
  S  S17  1  0.00000000  0.32459862  0.36761565  1
  S  S18  1  0.00000000  0.67540138  0.63238435  1
  S  S19  1  0.50000000  0.42045639  0.60397118  1
  S  S20  1  0.50000000  0.57954361  0.39602882  1
  S  S21  1  0.00000000  0.17757200  0.95390407  1
  S  S22  1  0.00000000  0.82242800  0.04609593  1
  S  S23  1  0.24060522  0.09226589  0.14522676  1
  Ba  Ba24  1  0.00000000  0.50000000  0.00000000  1
  Ba  Ba25  1  0.00000000  0.04697538  0.69109996  1
  Ba  Ba26  1  0.00000000  0.95302462  0.30890004  1
  Ba  Ba27  1  0.50000000  0.27797199  0.34354439  1
  Ba  Ba28  1  0.50000000  0.72202801  0.65645561  1
  Ba  Ba29  1  0.00000000  0.40521641  0.63539399  1
  Ba  Ba30  1  0.50000000  0.81655115  0.03582235  1
  Ba  Ba31  1  0.50000000  0.18344885  0.96417765  1
  Ba  Ba32  1  0.00000000  0.59478359  0.36460601  1
  Ta  Ta33  1  0.00000000  0.00000000  0.00000000  1
  Ta  Ta34  1  0.50000000  0.00000000  0.50000000  1
  Ta  Ta35  1  0.00000000  0.26978938  0.17245562  1
  Ta  Ta36  1  0.00000000  0.73021062  0.82754438  1
  Ta  Ta37  1  0.50000000  0.26592953  0.67568767  1
  Ta  Ta38  1  0.50000000  0.73407047  0.32431233  1
