# generated using pymatgen
data_LiGaI3
_symmetry_space_group_name_H-M   'P 1'
_cell_length_a   7.28492749
_cell_length_b   8.61615481
_cell_length_c   11.57686896
_cell_angle_alpha   90.00000000
_cell_angle_beta   90.00000000
_cell_angle_gamma   92.22547922
_symmetry_Int_Tables_number   1
_chemical_formula_structural   LiGaI3
_chemical_formula_sum   'Li4 Ga4 I12'
_cell_volume   726.10955665
_cell_formula_units_Z   4
loop_
 _symmetry_equiv_pos_site_id
 _symmetry_equiv_pos_as_xyz
  1  'x, y, z'
loop_
 _atom_site_type_symbol
 _atom_site_label
 _atom_site_symmetry_multiplicity
 _atom_site_fract_x
 _atom_site_fract_y
 _atom_site_fract_z
 _atom_site_occupancy
  Li  Li0  1  0.00000000  0.50000000  0.50000000  1
  Li  Li1  1  0.50000000  0.00000000  0.50000000  1
  Li  Li2  1  0.00000000  0.50000000  0.00000000  1
  Li  Li3  1  0.50000000  0.00000000  0.00000000  1
  Ga  Ga4  1  0.96625811  0.97010860  0.25000000  1
  Ga  Ga5  1  0.13320898  0.75889786  0.75000000  1
  Ga  Ga6  1  0.03374189  0.02989140  0.75000000  1
  Ga  Ga7  1  0.86679102  0.24110214  0.25000000  1
  I  I8  1  0.67545649  0.06582193  0.75000000  1
  I  I9  1  0.33493461  0.68285979  0.56969752  1
  I  I10  1  0.66506539  0.31714021  0.06969752  1
  I  I11  1  0.66506539  0.31714021  0.43030248  1
  I  I12  1  0.82199103  0.81637722  0.06992179  1
  I  I13  1  0.17800897  0.18362278  0.56992179  1
  I  I14  1  0.17800897  0.18362278  0.93007821  1
  I  I15  1  0.82199103  0.81637722  0.43007821  1
  I  I16  1  0.32454351  0.93417807  0.25000000  1
  I  I17  1  0.86277237  0.54622296  0.75000000  1
  I  I18  1  0.13722763  0.45377704  0.25000000  1
  I  I19  1  0.33493461  0.68285979  0.93030248  1
