# generated using pymatgen
data_K4Au6S5
_symmetry_space_group_name_H-M   'P 1'
_cell_length_a   9.83708300
_cell_length_b   9.83708300
_cell_length_c   10.13607066
_cell_angle_alpha   90.00000000
_cell_angle_beta   90.00000000
_cell_angle_gamma   119.99999999
_symmetry_Int_Tables_number   1
_chemical_formula_structural   K4Au6S5
_chemical_formula_sum   'K8 Au12 S10'
_cell_volume   849.44043960
_cell_formula_units_Z   2
loop_
 _symmetry_equiv_pos_site_id
 _symmetry_equiv_pos_as_xyz
  1  'x, y, z'
loop_
 _atom_site_type_symbol
 _atom_site_label
 _atom_site_symmetry_multiplicity
 _atom_site_fract_x
 _atom_site_fract_y
 _atom_site_fract_z
 _atom_site_occupancy
  S  S0  1  0.25986393  0.03441510  0.75000000  1
  S  S1  1  0.33333333  0.66666667  0.54556990  1
  S  S2  1  0.33333333  0.66666667  0.95443010  1
  S  S3  1  0.66666667  0.33333333  0.04556990  1
  S  S4  1  0.66666667  0.33333333  0.45443010  1
  S  S5  1  0.03441510  0.25986393  0.25000000  1
  S  S6  1  0.22544883  0.96558490  0.25000000  1
  S  S7  1  0.74013607  0.77455117  0.25000000  1
  S  S8  1  0.96558490  0.22544883  0.75000000  1
  S  S9  1  0.77455117  0.74013607  0.75000000  1
  K  K10  1  0.58264010  0.92783047  0.75000000  1
  K  K11  1  0.07216953  0.65480963  0.75000000  1
  K  K12  1  0.34519037  0.41735990  0.75000000  1
  K  K13  1  0.41735990  0.34519037  0.25000000  1
  K  K14  1  0.65480963  0.07216953  0.25000000  1
  K  K15  1  0.00000000  0.00000000  0.00000000  1
  K  K16  1  0.00000000  0.00000000  0.50000000  1
  K  K17  1  0.92783047  0.58264010  0.25000000  1
  Au  Au18  1  0.16734435  0.45008596  0.41153198  1
  Au  Au19  1  0.28274161  0.83265565  0.41153198  1
  Au  Au20  1  0.54991404  0.71725839  0.41153198  1
  Au  Au21  1  0.71725839  0.54991404  0.58846802  1
  Au  Au22  1  0.28274161  0.83265565  0.08846802  1
  Au  Au23  1  0.16734435  0.45008596  0.08846802  1
  Au  Au24  1  0.83265565  0.28274161  0.91153198  1
  Au  Au25  1  0.45008596  0.16734435  0.91153198  1
  Au  Au26  1  0.45008596  0.16734435  0.58846802  1
  Au  Au27  1  0.83265565  0.28274161  0.58846802  1
  Au  Au28  1  0.71725839  0.54991404  0.91153198  1
  Au  Au29  1  0.54991404  0.71725839  0.08846802  1
