# generated using pymatgen
data_Lu(NbCl3)6
_symmetry_space_group_name_H-M   'P 1'
_cell_length_a   10.13160673
_cell_length_b   10.13160673
_cell_length_c   10.13160673
_cell_angle_alpha   55.93775884
_cell_angle_beta   55.93775880
_cell_angle_gamma   55.93775881
_symmetry_Int_Tables_number   1
_chemical_formula_structural   Lu(NbCl3)6
_chemical_formula_sum   'Lu1 Nb6 Cl18'
_cell_volume   666.16635440
_cell_formula_units_Z   1
loop_
 _symmetry_equiv_pos_site_id
 _symmetry_equiv_pos_as_xyz
  1  'x, y, z'
loop_
 _atom_site_type_symbol
 _atom_site_label
 _atom_site_symmetry_multiplicity
 _atom_site_fract_x
 _atom_site_fract_y
 _atom_site_fract_z
 _atom_site_occupancy
  Cl  Cl0  1  0.16009058  0.56914877  0.44154920  1
  Cl  Cl1  1  0.36923774  0.22341973  0.91069562  1
  Cl  Cl2  1  0.22341973  0.91069562  0.36923774  1
  Cl  Cl3  1  0.91069562  0.36923774  0.22341973  1
  Cl  Cl4  1  0.63076226  0.77658027  0.08930438  1
  Cl  Cl5  1  0.77658027  0.08930438  0.63076226  1
  Cl  Cl6  1  0.95971528  0.70733769  0.15713596  1
  Cl  Cl7  1  0.15713596  0.95971528  0.70733769  1
  Cl  Cl8  1  0.70733769  0.15713596  0.95971528  1
  Cl  Cl9  1  0.04028472  0.29266231  0.84286404  1
  Cl  Cl10  1  0.84286404  0.04028472  0.29266231  1
  Cl  Cl11  1  0.29266231  0.84286404  0.04028472  1
  Cl  Cl12  1  0.43085123  0.55845080  0.83990942  1
  Cl  Cl13  1  0.44154920  0.16009058  0.56914877  1
  Cl  Cl14  1  0.56914877  0.44154920  0.16009058  1
  Cl  Cl15  1  0.83990942  0.43085123  0.55845080  1
  Cl  Cl16  1  0.55845080  0.83990942  0.43085123  1
  Cl  Cl17  1  0.08930438  0.63076226  0.77658027  1
  Nb  Nb18  1  0.29832951  0.40753471  0.65130661  1
  Nb  Nb19  1  0.59246529  0.34869339  0.70167049  1
  Nb  Nb20  1  0.34869339  0.70167049  0.59246529  1
  Nb  Nb21  1  0.65130661  0.29832951  0.40753471  1
  Nb  Nb22  1  0.40753471  0.65130661  0.29832951  1
  Nb  Nb23  1  0.70167049  0.59246529  0.34869339  1
  Lu  Lu24  1  0.00000000  0.00000000  0.00000000  1
