# generated using pymatgen
data_Zr6BCl14
_symmetry_space_group_name_H-M   'P 1'
_cell_length_a   9.73775001
_cell_length_b   9.73775001
_cell_length_c   11.72198382
_cell_angle_alpha   90.00000000
_cell_angle_beta   90.00000000
_cell_angle_gamma   96.23393907
_symmetry_Int_Tables_number   1
_chemical_formula_structural   Zr6BCl14
_chemical_formula_sum   'Zr12 B2 Cl28'
_cell_volume   1104.95012108
_cell_formula_units_Z   2
loop_
 _symmetry_equiv_pos_site_id
 _symmetry_equiv_pos_as_xyz
  1  'x, y, z'
loop_
 _atom_site_type_symbol
 _atom_site_label
 _atom_site_symmetry_multiplicity
 _atom_site_fract_x
 _atom_site_fract_y
 _atom_site_fract_z
 _atom_site_occupancy
  B  B0  1  0.50000000  0.50000000  0.00000000  1
  B  B1  1  0.00000000  0.00000000  0.50000000  1
  Cl  Cl2  1  0.75053980  0.24946020  0.50000000  1
  Cl  Cl3  1  0.74946020  0.25053980  0.00000000  1
  Cl  Cl4  1  0.24946020  0.75053980  0.50000000  1
  Cl  Cl5  1  0.25053980  0.74946020  0.00000000  1
  Cl  Cl6  1  0.84227700  0.84227700  0.24123794  1
  Cl  Cl7  1  0.65772300  0.65772300  0.74123794  1
  Cl  Cl8  1  0.34227700  0.34227700  0.25876206  1
  Cl  Cl9  1  0.15772300  0.15772300  0.75876206  1
  Cl  Cl10  1  0.10253576  0.60253576  0.25000000  1
  Cl  Cl11  1  0.39746424  0.89746424  0.75000000  1
  Cl  Cl12  1  0.20662368  0.96470536  0.25162862  1
  Cl  Cl13  1  0.29337632  0.53529464  0.75162862  1
  Cl  Cl14  1  0.46470536  0.70662368  0.24837138  1
  Cl  Cl15  1  0.03529464  0.79337632  0.74837138  1
  Cl  Cl16  1  0.79337632  0.03529464  0.74837138  1
  Cl  Cl17  1  0.70662368  0.46470536  0.24837138  1
  Cl  Cl18  1  0.53529464  0.29337632  0.75162862  1
  Cl  Cl19  1  0.96470536  0.20662368  0.25162862  1
  Cl  Cl20  1  0.38215438  0.13693095  0.00850026  1
  Cl  Cl21  1  0.11784562  0.36306905  0.50850026  1
  Cl  Cl22  1  0.63693095  0.88215438  0.49149974  1
  Cl  Cl23  1  0.86306905  0.61784562  0.99149974  1
  Cl  Cl24  1  0.61784562  0.86306905  0.99149974  1
  Cl  Cl25  1  0.88215438  0.63693095  0.49149974  1
  Cl  Cl26  1  0.36306905  0.11784562  0.50850026  1
  Cl  Cl27  1  0.13693095  0.38215438  0.00850026  1
  Cl  Cl28  1  0.60253576  0.10253576  0.25000000  1
  Cl  Cl29  1  0.89746424  0.39746424  0.75000000  1
  Zr  Zr30  1  0.64832473  0.64832473  0.10784315  1
  Zr  Zr31  1  0.85167527  0.85167527  0.60784315  1
  Zr  Zr32  1  0.14832473  0.14832473  0.39215685  1
  Zr  Zr33  1  0.35167527  0.35167527  0.89215685  1
  Zr  Zr34  1  0.68779525  0.45267917  0.88325969  1
  Zr  Zr35  1  0.81220475  0.04732083  0.38325969  1
  Zr  Zr36  1  0.95267917  0.18779525  0.61674031  1
  Zr  Zr37  1  0.54732083  0.31220475  0.11674031  1
  Zr  Zr38  1  0.31220475  0.54732083  0.11674031  1
  Zr  Zr39  1  0.18779525  0.95267917  0.61674031  1
  Zr  Zr40  1  0.04732083  0.81220475  0.38325969  1
  Zr  Zr41  1  0.45267917  0.68779525  0.88325969  1
