# generated using pymatgen
data_NaTeF5
_symmetry_space_group_name_H-M   'P 1'
_cell_length_a   6.04090205
_cell_length_b   7.40470827
_cell_length_c   10.39531549
_cell_angle_alpha   90.00000000
_cell_angle_beta   90.00000000
_cell_angle_gamma   90.00000000
_symmetry_Int_Tables_number   1
_chemical_formula_structural   NaTeF5
_chemical_formula_sum   'Na4 Te4 F20'
_cell_volume   464.99407726
_cell_formula_units_Z   4
loop_
 _symmetry_equiv_pos_site_id
 _symmetry_equiv_pos_as_xyz
  1  'x, y, z'
loop_
 _atom_site_type_symbol
 _atom_site_label
 _atom_site_symmetry_multiplicity
 _atom_site_fract_x
 _atom_site_fract_y
 _atom_site_fract_z
 _atom_site_occupancy
  F  F0  1  0.01889745  0.84830762  0.90051704  1
  F  F1  1  0.02524517  0.94315777  0.63607766  1
  F  F2  1  0.47475483  0.55684223  0.13607766  1
  F  F3  1  0.97475483  0.44315777  0.86392234  1
  F  F4  1  0.25000000  0.39812331  0.30805563  1
  F  F5  1  0.75000000  0.60187669  0.69194437  1
  F  F6  1  0.75000000  0.89812331  0.19194437  1
  F  F7  1  0.25000000  0.10187669  0.80805563  1
  F  F8  1  0.01889745  0.65169238  0.40051704  1
  F  F9  1  0.51889745  0.34830762  0.59948296  1
  F  F10  1  0.98110255  0.15169238  0.09948296  1
  F  F11  1  0.47475483  0.94315777  0.63607766  1
  F  F12  1  0.98110255  0.34830762  0.59948296  1
  F  F13  1  0.48110255  0.65169238  0.40051704  1
  F  F14  1  0.48110255  0.84830762  0.90051704  1
  F  F15  1  0.51889745  0.15169238  0.09948296  1
  F  F16  1  0.02524517  0.55684223  0.13607766  1
  F  F17  1  0.52524517  0.44315777  0.86392234  1
  F  F18  1  0.97475483  0.05684223  0.36392234  1
  F  F19  1  0.52524517  0.05684223  0.36392234  1
  Na  Na20  1  0.25000000  0.31582299  0.99549718  1
  Na  Na21  1  0.75000000  0.68417701  0.00450282  1
  Na  Na22  1  0.75000000  0.81582299  0.50450282  1
  Na  Na23  1  0.25000000  0.18417701  0.49549718  1
  Te  Te24  1  0.25000000  0.84922946  0.76512437  1
  Te  Te25  1  0.75000000  0.15077054  0.23487563  1
  Te  Te26  1  0.75000000  0.34922946  0.73487563  1
  Te  Te27  1  0.25000000  0.65077054  0.26512437  1
