# generated using pymatgen
data_NaCu3F7
_symmetry_space_group_name_H-M   'P 1'
_cell_length_a   6.99487402
_cell_length_b   7.16633046
_cell_length_c   7.16633046
_cell_angle_alpha   62.62273996
_cell_angle_beta   64.51879516
_cell_angle_gamma   64.51879509
_symmetry_Int_Tables_number   1
_chemical_formula_structural   NaCu3F7
_chemical_formula_sum   'Na2 Cu6 F14'
_cell_volume   275.60100249
_cell_formula_units_Z   2
loop_
 _symmetry_equiv_pos_site_id
 _symmetry_equiv_pos_as_xyz
  1  'x, y, z'
loop_
 _atom_site_type_symbol
 _atom_site_label
 _atom_site_symmetry_multiplicity
 _atom_site_fract_x
 _atom_site_fract_y
 _atom_site_fract_z
 _atom_site_occupancy
  F  F0  1  0.25000000  0.89365806  0.10634194  1
  F  F1  1  0.75000000  0.10634194  0.89365806  1
  F  F2  1  0.10508215  0.69202573  0.61553452  1
  F  F3  1  0.39491785  0.38446548  0.30797427  1
  F  F4  1  0.89491785  0.30797427  0.38446548  1
  F  F5  1  0.60508215  0.61553452  0.69202573  1
  F  F6  1  0.18462855  0.02951172  0.62280511  1
  F  F7  1  0.31537145  0.37719489  0.97048828  1
  F  F8  1  1.00220542  0.29808061  0.89323093  1
  F  F9  1  0.49779458  0.10676907  0.70191939  1
  F  F10  1  -0.00220542  0.70191939  0.10676907  1
  F  F11  1  0.50220542  0.89323093  0.29808061  1
  F  F12  1  0.68462855  0.62280511  0.02951172  1
  F  F13  1  0.81537145  0.97048828  0.37719489  1
  Na  Na14  1  0.00000000  0.50000000  0.50000000  1
  Na  Na15  1  0.50000000  0.50000000  0.50000000  1
  Cu  Cu16  1  0.50000000  0.00000000  0.50000000  1
  Cu  Cu17  1  0.00000000  0.50000000  0.00000000  1
  Cu  Cu18  1  0.50000000  0.00000000  0.00000000  1
  Cu  Cu19  1  0.00000000  0.00000000  0.00000000  1
  Cu  Cu20  1  0.50000000  0.50000000  0.00000000  1
  Cu  Cu21  1  0.00000000  0.00000000  0.50000000  1
