# generated using pymatgen
data_Zr6CCl14
_symmetry_space_group_name_H-M   'P 1'
_cell_length_a   9.67774653
_cell_length_b   9.67774652
_cell_length_c   11.69334443
_cell_angle_alpha   90.00000000
_cell_angle_beta   90.00000000
_cell_angle_gamma   95.63665236
_symmetry_Int_Tables_number   1
_chemical_formula_structural   Zr6CCl14
_chemical_formula_sum   'Zr12 C2 Cl28'
_cell_volume   1089.88888189
_cell_formula_units_Z   2
loop_
 _symmetry_equiv_pos_site_id
 _symmetry_equiv_pos_as_xyz
  1  'x, y, z'
loop_
 _atom_site_type_symbol
 _atom_site_label
 _atom_site_symmetry_multiplicity
 _atom_site_fract_x
 _atom_site_fract_y
 _atom_site_fract_z
 _atom_site_occupancy
  C  C0  1  0.50000000  0.50000000  0.00000000  1
  C  C1  1  0.00000000  0.00000000  0.50000000  1
  Cl  Cl2  1  0.75142919  0.24857081  0.50000000  1
  Cl  Cl3  1  0.74857081  0.25142919  0.00000000  1
  Cl  Cl4  1  0.24857081  0.75142919  0.50000000  1
  Cl  Cl5  1  0.25142919  0.74857081  0.00000000  1
  Cl  Cl6  1  0.84316221  0.84316221  0.23966670  1
  Cl  Cl7  1  0.65683779  0.65683779  0.73966670  1
  Cl  Cl8  1  0.34316221  0.34316221  0.26033330  1
  Cl  Cl9  1  0.15683779  0.15683779  0.76033330  1
  Cl  Cl10  1  0.10330721  0.60330721  0.25000000  1
  Cl  Cl11  1  0.39669279  0.89669279  0.75000000  1
  Cl  Cl12  1  0.20968692  0.96462348  0.25268203  1
  Cl  Cl13  1  0.29031308  0.53537652  0.75268203  1
  Cl  Cl14  1  0.46462348  0.70968692  0.24731797  1
  Cl  Cl15  1  0.03537652  0.79031308  0.74731797  1
  Cl  Cl16  1  0.79031308  0.03537652  0.74731797  1
  Cl  Cl17  1  0.70968692  0.46462348  0.24731797  1
  Cl  Cl18  1  0.53537652  0.29031308  0.75268203  1
  Cl  Cl19  1  0.96462348  0.20968692  0.25268203  1
  Cl  Cl20  1  0.38452848  0.13795569  0.00887723  1
  Cl  Cl21  1  0.11547152  0.36204431  0.50887723  1
  Cl  Cl22  1  0.63795569  0.88452848  0.49112277  1
  Cl  Cl23  1  0.86204431  0.61547152  0.99112277  1
  Cl  Cl24  1  0.61547152  0.86204431  0.99112277  1
  Cl  Cl25  1  0.88452848  0.63795569  0.49112277  1
  Cl  Cl26  1  0.36204431  0.11547152  0.50887723  1
  Cl  Cl27  1  0.13795569  0.38452848  0.00887723  1
  Cl  Cl28  1  0.60330721  0.10330721  0.25000000  1
  Cl  Cl29  1  0.89669279  0.39669279  0.75000000  1
  Zr  Zr30  1  0.64405893  0.64405893  0.10504566  1
  Zr  Zr31  1  0.85594107  0.85594107  0.60504566  1
  Zr  Zr32  1  0.14405893  0.14405893  0.39495434  1
  Zr  Zr33  1  0.35594107  0.35594107  0.89495434  1
  Zr  Zr34  1  0.68355932  0.45395956  0.88324610  1
  Zr  Zr35  1  0.81644068  0.04604044  0.38324610  1
  Zr  Zr36  1  0.95395956  0.18355932  0.61675390  1
  Zr  Zr37  1  0.54604044  0.31644068  0.11675390  1
  Zr  Zr38  1  0.31644068  0.54604044  0.11675390  1
  Zr  Zr39  1  0.18355932  0.95395956  0.61675390  1
  Zr  Zr40  1  0.04604044  0.81644068  0.38324610  1
  Zr  Zr41  1  0.45395956  0.68355932  0.88324610  1
