# generated using pymatgen
data_NiP2O7
_symmetry_space_group_name_H-M   'P 1'
_cell_length_a   6.61279613
_cell_length_b   6.37608476
_cell_length_c   6.97570039
_cell_angle_alpha   113.52467301
_cell_angle_beta   90.57461709
_cell_angle_gamma   85.93583041
_symmetry_Int_Tables_number   1
_chemical_formula_structural   NiP2O7
_chemical_formula_sum   'Ni2 P4 O14'
_cell_volume   268.94494360
_cell_formula_units_Z   2
loop_
 _symmetry_equiv_pos_site_id
 _symmetry_equiv_pos_as_xyz
  1  'x, y, z'
loop_
 _atom_site_type_symbol
 _atom_site_label
 _atom_site_symmetry_multiplicity
 _atom_site_fract_x
 _atom_site_fract_y
 _atom_site_fract_z
 _atom_site_occupancy
  Ni  Ni0  1  0.64125405  0.09535913  0.20333238  1
  Ni  Ni1  1  0.35880675  0.90461063  0.79660360  1
  P  P2  1  0.39016977  0.33522153  0.64505084  1
  P  P3  1  0.60983413  0.66478874  0.35492837  1
  P  P4  1  0.14464261  0.21338517  0.24946600  1
  P  P5  1  0.85534630  0.78662691  0.75061168  1
  O  O6  1  0.61163600  0.41178097  0.20577151  1
  O  O7  1  0.90186326  0.58267359  0.81311498  1
  O  O8  1  0.09777781  0.41729123  0.18696720  1
  O  O9  1  0.05015520  0.90426702  0.77005975  1
  O  O10  1  0.20116132  0.30694616  0.49220540  1
  O  O11  1  0.34906299  0.21548569  0.79005117  1
  O  O12  1  0.32978522  0.06087627  0.12607484  1
  O  O13  1  0.38863707  0.58820724  0.79420638  1
  O  O14  1  0.79874609  0.69326577  0.50790840  1
  O  O15  1  0.58354542  0.24228233  0.51261030  1
  O  O16  1  0.94994184  0.09549384  0.22987159  1
  O  O17  1  0.67025908  0.93932216  0.87400700  1
  O  O18  1  0.65100779  0.78450240  0.20991402  1
  O  O19  1  0.41636731  0.75761424  0.48724056  1
