# generated using pymatgen
data_LiV2OF7
_symmetry_space_group_name_H-M   'P 1'
_cell_length_a   5.68521687
_cell_length_b   5.43014058
_cell_length_c   10.89164698
_cell_angle_alpha   90.00000000
_cell_angle_beta   76.00998715
_cell_angle_gamma   90.00000000
_symmetry_Int_Tables_number   1
_chemical_formula_structural   LiV2OF7
_chemical_formula_sum   'Li2 V4 O2 F14'
_cell_volume   326.26812846
_cell_formula_units_Z   2
loop_
 _symmetry_equiv_pos_site_id
 _symmetry_equiv_pos_as_xyz
  1  'x, y, z'
loop_
 _atom_site_type_symbol
 _atom_site_label
 _atom_site_symmetry_multiplicity
 _atom_site_fract_x
 _atom_site_fract_y
 _atom_site_fract_z
 _atom_site_occupancy
  Li  Li0  1  0.97209156  0.92534485  0.50383813  1
  Li  Li1  1  0.47209156  0.57465515  0.00383813  1
  V  V2  1  0.07194347  0.74334986  0.81358306  1
  V  V3  1  0.57194347  0.75665014  0.31358306  1
  V  V4  1  0.44529271  0.23034898  0.68275115  1
  V  V5  1  0.94529271  0.26965102  0.18275115  1
  O  O6  1  0.33152769  0.93093686  0.74000608  1
  O  O7  1  0.83152769  0.56906314  0.24000608  1
  F  F8  1  0.05536983  0.12510516  0.30732779  1
  F  F9  1  0.25256248  0.31061928  0.08687765  1
  F  F10  1  0.26929873  0.73039481  0.41366562  1
  F  F11  1  0.12975123  0.40043262  0.77815122  1
  F  F12  1  0.45589726  0.72657591  0.16703582  1
  F  F13  1  0.31836302  0.27063991  0.54897220  1
  F  F14  1  0.19790102  0.72311981  0.95779028  1
  F  F15  1  0.62975123  0.09956738  0.27815122  1
  F  F16  1  0.81836302  0.22936009  0.04897220  1
  F  F17  1  0.69790102  0.77688019  0.45779028  1
  F  F18  1  0.55536983  0.37489484  0.80732779  1
  F  F19  1  0.75256248  0.18938072  0.58687765  1
  F  F20  1  0.76929873  0.76960519  0.91366562  1
  F  F21  1  0.95589726  0.77342409  0.66703582  1
