# generated using pymatgen
data_Rb3TlCl6
_symmetry_space_group_name_H-M   'P 1'
_cell_length_a   8.07852998
_cell_length_b   12.92239257
_cell_length_c   13.50280899
_cell_angle_alpha   108.05608094
_cell_angle_beta   90.00000000
_cell_angle_gamma   90.00000000
_symmetry_Int_Tables_number   1
_chemical_formula_structural   Rb3TlCl6
_chemical_formula_sum   'Rb12 Tl4 Cl24'
_cell_volume   1340.19308329
_cell_formula_units_Z   4
loop_
 _symmetry_equiv_pos_site_id
 _symmetry_equiv_pos_as_xyz
  1  'x, y, z'
loop_
 _atom_site_type_symbol
 _atom_site_label
 _atom_site_symmetry_multiplicity
 _atom_site_fract_x
 _atom_site_fract_y
 _atom_site_fract_z
 _atom_site_occupancy
  Cl  Cl0  1  0.18642845  0.85053747  0.37141886  1
  Cl  Cl1  1  0.68642845  0.64946253  0.62858114  1
  Cl  Cl2  1  0.81357155  0.14946253  0.62858114  1
  Cl  Cl3  1  0.31357155  0.35053747  0.37141886  1
  Cl  Cl4  1  0.30161469  0.99338888  0.15116065  1
  Cl  Cl5  1  0.80161469  0.50661112  0.84883935  1
  Cl  Cl6  1  0.69838531  0.00661112  0.84883935  1
  Cl  Cl7  1  0.19838531  0.49338888  0.15116065  1
  Cl  Cl8  1  0.99867521  0.87772209  0.62002074  1
  Cl  Cl9  1  0.49867521  0.62227791  0.37997926  1
  Cl  Cl10  1  0.00132479  0.12227791  0.37997926  1
  Cl  Cl11  1  0.50132479  0.37772209  0.62002074  1
  Cl  Cl12  1  0.63976429  0.81238265  0.99931778  1
  Cl  Cl13  1  0.13976429  0.68761735  0.00068222  1
  Cl  Cl14  1  0.36023571  0.18761735  0.00068222  1
  Cl  Cl15  1  0.86023571  0.31238265  0.99931778  1
  Cl  Cl16  1  0.79111133  0.60512320  0.14951663  1
  Cl  Cl17  1  0.29111133  0.89487680  0.85048337  1
  Cl  Cl18  1  0.20888867  0.39487680  0.85048337  1
  Cl  Cl19  1  0.70888867  0.10512320  0.14951663  1
  Cl  Cl20  1  0.77318017  0.39912133  0.40045607  1
  Cl  Cl21  1  0.27318017  0.10087867  0.59954393  1
  Cl  Cl22  1  0.22681983  0.60087867  0.59954393  1
  Cl  Cl23  1  0.72681983  0.89912133  0.40045607  1
  Rb  Rb24  1  0.43594567  0.73698047  0.18366318  1
  Rb  Rb25  1  0.93594567  0.76301953  0.81633682  1
  Rb  Rb26  1  0.56405433  0.26301953  0.81633682  1
  Rb  Rb27  1  0.06405433  0.23698047  0.18366318  1
  Rb  Rb28  1  0.93487650  0.88492633  0.18032409  1
  Rb  Rb29  1  0.43487650  0.61507367  0.81967591  1
  Rb  Rb30  1  0.06512350  0.11507367  0.81967591  1
  Rb  Rb31  1  0.56512350  0.38492633  0.18032409  1
  Rb  Rb32  1  0.95940906  0.64118149  0.40399397  1
  Rb  Rb33  1  0.45940906  0.85881851  0.59600603  1
  Rb  Rb34  1  0.04059094  0.35881851  0.59600603  1
  Rb  Rb35  1  0.54059094  0.14118149  0.40399397  1
  Tl  Tl36  1  0.50000000  0.50000000  0.50000000  1
  Tl  Tl37  1  0.00000000  0.00000000  0.50000000  1
  Tl  Tl38  1  0.50000000  0.00000000  0.00000000  1
  Tl  Tl39  1  0.00000000  0.50000000  0.00000000  1
