# generated using pymatgen
data_Sb7F29
_symmetry_space_group_name_H-M   'P 1'
_cell_length_a   8.68351786
_cell_length_b   13.73520657
_cell_length_c   20.35199857
_cell_angle_alpha   90.00000000
_cell_angle_beta   99.79543588
_cell_angle_gamma   90.00000000
_symmetry_Int_Tables_number   1
_chemical_formula_structural   Sb7F29
_chemical_formula_sum   'Sb28 F116'
_cell_volume   2391.99338205
_cell_formula_units_Z   4
loop_
 _symmetry_equiv_pos_site_id
 _symmetry_equiv_pos_as_xyz
  1  'x, y, z'
loop_
 _atom_site_type_symbol
 _atom_site_label
 _atom_site_symmetry_multiplicity
 _atom_site_fract_x
 _atom_site_fract_y
 _atom_site_fract_z
 _atom_site_occupancy
  F  F0  1  0.00925779  0.77734665  0.22191306  1
  F  F1  1  0.99074221  0.27734665  0.27808694  1
  F  F2  1  0.99074221  0.22265335  0.77808694  1
  F  F3  1  0.00925779  0.72265335  0.72191306  1
  F  F4  1  0.28449863  0.75839949  0.16788733  1
  F  F5  1  0.71550137  0.25839949  0.33211267  1
  F  F6  1  0.71550137  0.24160051  0.83211267  1
  F  F7  1  0.28449863  0.74160051  0.66788733  1
  F  F8  1  0.10038300  0.91574089  0.12170150  1
  F  F9  1  0.89961700  0.41574089  0.37829850  1
  F  F10  1  0.89961700  0.08425911  0.87829850  1
  F  F11  1  0.10038300  0.58425911  0.62170150  1
  F  F12  1  0.09874825  0.60336817  0.17618706  1
  F  F13  1  0.90125175  0.10336817  0.32381294  1
  F  F14  1  0.90125175  0.39663183  0.82381294  1
  F  F15  1  0.09874825  0.89663183  0.67618706  1
  F  F16  1  0.80266814  0.65521881  0.12503129  1
  F  F17  1  0.19733186  0.15521881  0.37496871  1
  F  F18  1  0.19733186  0.34478119  0.87496871  1
  F  F19  1  0.80266814  0.84478119  0.62503129  1
  F  F20  1  0.79753852  0.85239007  0.11966117  1
  F  F21  1  0.20246148  0.35239007  0.38033883  1
  F  F22  1  0.20246148  0.14760993  0.88033883  1
  F  F23  1  0.79753852  0.64760993  0.61966117  1
  F  F24  1  0.87859922  0.04230984  0.14234197  1
  F  F25  1  0.12140078  0.54230984  0.35765803  1
  F  F26  1  0.12140078  0.95769016  0.85765803  1
  F  F27  1  0.87859922  0.45769016  0.64234197  1
  F  F28  1  0.89015279  0.46369654  0.12723732  1
  F  F29  1  0.10984721  0.96369654  0.37276268  1
  F  F30  1  0.10984721  0.53630346  0.87276268  1
  F  F31  1  0.89015279  0.03630346  0.62723732  1
  F  F32  1  0.48053466  0.65504462  0.06831108  1
  F  F33  1  0.51946534  0.15504462  0.43168892  1
  F  F34  1  0.51946534  0.34495538  0.93168892  1
  F  F35  1  0.48053466  0.84495538  0.56831108  1
  F  F36  1  0.47563045  0.85229450  0.06392659  1
  F  F37  1  0.52436955  0.35229450  0.43607341  1
  F  F38  1  0.52436955  0.14770550  0.93607341  1
  F  F39  1  0.47563045  0.64770550  0.56392659  1
  F  F40  1  0.33774627  0.65889976  0.28496759  1
  F  F41  1  0.66225373  0.15889976  0.21503241  1
  F  F42  1  0.66225373  0.34110024  0.71503241  1
  F  F43  1  0.33774627  0.84110024  0.78496759  1
  F  F44  1  0.56326913  0.66782456  0.20987153  1
  F  F45  1  0.43673087  0.16782456  0.29012847  1
  F  F46  1  0.43673087  0.33217544  0.79012847  1
  F  F47  1  0.56326913  0.83217544  0.70987153  1
  F  F48  1  0.54415469  0.86307320  0.20606377  1
  F  F49  1  0.45584531  0.36307320  0.29393623  1
  F  F50  1  0.45584531  0.13692680  0.79393623  1
  F  F51  1  0.54415469  0.63692680  0.70606377  1
  F  F52  1  0.32341326  0.85971346  0.28400541  1
  F  F53  1  0.67658674  0.35971346  0.21599459  1
  F  F54  1  0.67658674  0.14028654  0.71599459  1
  F  F55  1  0.32341326  0.64028654  0.78400541  1
  F  F56  1  0.60120478  0.77074206  0.32891448  1
  F  F57  1  0.39879522  0.27074206  0.17108552  1
  F  F58  1  0.39879522  0.22925794  0.67108552  1
  F  F59  1  0.60120478  0.72925794  0.82891448  1
  F  F60  1  0.32853730  0.05335979  0.13734293  1
  F  F61  1  0.67146270  0.55335979  0.36265707  1
  F  F62  1  0.67146270  0.94664021  0.86265707  1
  F  F63  1  0.32853730  0.44664021  0.63734293  1
  F  F64  1  0.14329607  0.02601248  0.23244265  1
  F  F65  1  0.85670393  0.52601248  0.26755735  1
  F  F66  1  0.85670393  0.97398752  0.76755735  1
  F  F67  1  0.14329607  0.47398752  0.73244265  1
  F  F68  1  0.09068522  0.19073346  0.15953038  1
  F  F69  1  0.90931478  0.69073346  0.34046962  1
  F  F70  1  0.90931478  0.80926654  0.84046962  1
  F  F71  1  0.09068522  0.30926654  0.65953038  1
  F  F72  1  0.05261946  0.07878978  0.04753483  1
  F  F73  1  0.94738054  0.57878978  0.45246517  1
  F  F74  1  0.94738054  0.92121022  0.95246517  1
  F  F75  1  0.05261946  0.42121022  0.54753483  1
  F  F76  1  0.34207774  0.50089891  0.13450092  1
  F  F77  1  0.65792226  0.00089891  0.36549908  1
  F  F78  1  0.65792226  0.49910109  0.86549908  1
  F  F79  1  0.34207774  0.99910109  0.63450092  1
  F  F80  1  0.15167176  0.41992748  0.21319708  1
  F  F81  1  0.84832824  0.91992748  0.28680292  1
  F  F82  1  0.84832824  0.58007252  0.78680292  1
  F  F83  1  0.15167176  0.08007252  0.71319708  1
  F  F84  1  0.11503361  0.36485518  0.07735341  1
  F  F85  1  0.88496639  0.86485518  0.42264659  1
  F  F86  1  0.88496639  0.63514482  0.92264659  1
  F  F87  1  0.11503361  0.13514482  0.57735341  1
  F  F88  1  0.07308050  0.56274308  0.05313423  1
  F  F89  1  0.92691950  0.06274308  0.44686577  1
  F  F90  1  0.92691950  0.43725692  0.94686577  1
  F  F91  1  0.07308050  0.93725692  0.55313423  1
  F  F92  1  0.67852910  0.53314288  0.02109615  1
  F  F93  1  0.32147090  0.03314288  0.47890385  1
  F  F94  1  0.32147090  0.46685712  0.97890385  1
  F  F95  1  0.67852910  0.96685712  0.52109615  1
  F  F96  1  0.68302420  0.97859650  0.02003044  1
  F  F97  1  0.31697580  0.47859650  0.47996956  1
  F  F98  1  0.31697580  0.02140350  0.97996956  1
  F  F99  1  0.68302420  0.52140350  0.52003044  1
  F  F100  1  0.39560037  0.84733365  0.92631185  1
  F  F101  1  0.60439963  0.34733365  0.57368815  1
  F  F102  1  0.60439963  0.15266635  0.07368815  1
  F  F103  1  0.39560037  0.65266635  0.42631185  1
  F  F104  1  0.22714307  0.75047939  0.00793920  1
  F  F105  1  0.77285693  0.25047939  0.49206080  1
  F  F106  1  0.77285693  0.24952061  0.99206080  1
  F  F107  1  0.22714307  0.74952061  0.50793920  1
  F  F108  1  0.65317195  0.75188294  0.99081902  1
  F  F109  1  0.34682805  0.25188294  0.50918098  1
  F  F110  1  0.34682805  0.24811706  0.00918098  1
  F  F111  1  0.65317195  0.74811706  0.49081902  1
  F  F112  1  0.39805706  0.64696607  0.93032283  1
  F  F113  1  0.60194294  0.14696607  0.56967717  1
  F  F114  1  0.60194294  0.35303393  0.06967717  1
  F  F115  1  0.39805706  0.85303393  0.43032283  1
  Sb  Sb116  1  0.02032399  0.75433090  0.13139672  1
  Sb  Sb117  1  0.97967601  0.25433090  0.36860328  1
  Sb  Sb118  1  0.97967601  0.24566910  0.86860328  1
  Sb  Sb119  1  0.02032399  0.74566910  0.63139672  1
  Sb  Sb120  1  0.44759591  0.76239968  0.25132665  1
  Sb  Sb121  1  0.55240409  0.26239968  0.24867335  1
  Sb  Sb122  1  0.55240409  0.23760032  0.74867335  1
  Sb  Sb123  1  0.44759591  0.73760032  0.75132665  1
  Sb  Sb124  1  0.11069936  0.05800705  0.14012012  1
  Sb  Sb125  1  0.88930064  0.55800705  0.35987988  1
  Sb  Sb126  1  0.88930064  0.94199295  0.85987988  1
  Sb  Sb127  1  0.11069936  0.44199295  0.64012012  1
  Sb  Sb128  1  0.12290683  0.47906262  0.12844934  1
  Sb  Sb129  1  0.87709317  0.97906262  0.37155066  1
  Sb  Sb130  1  0.87709317  0.52093738  0.87155066  1
  Sb  Sb131  1  0.12290683  0.02093738  0.62844934  1
  Sb  Sb132  1  0.66274658  0.53688313  0.11368440  1
  Sb  Sb133  1  0.33725342  0.03688313  0.38631560  1
  Sb  Sb134  1  0.33725342  0.46311687  0.88631560  1
  Sb  Sb135  1  0.66274658  0.96311687  0.61368440  1
  Sb  Sb136  1  0.65480634  0.96911236  0.11107206  1
  Sb  Sb137  1  0.34519366  0.46911236  0.38892794  1
  Sb  Sb138  1  0.34519366  0.03088764  0.88892794  1
  Sb  Sb139  1  0.65480634  0.53088764  0.61107206  1
  Sb  Sb140  1  0.43770766  0.74995792  0.99447487  1
  Sb  Sb141  1  0.56229234  0.24995792  0.50552513  1
  Sb  Sb142  1  0.56229234  0.25004208  0.00552513  1
  Sb  Sb143  1  0.43770766  0.75004208  0.49447487  1
