# generated using pymatgen
data_Na5InS4
_symmetry_space_group_name_H-M   'P 1'
_cell_length_a   6.88394907
_cell_length_b   7.87440020
_cell_length_c   8.85339768
_cell_angle_alpha   90.00000000
_cell_angle_beta   90.00000000
_cell_angle_gamma   91.00406550
_symmetry_Int_Tables_number   1
_chemical_formula_structural   Na5InS4
_chemical_formula_sum   'Na10 In2 S8'
_cell_volume   479.84217320
_cell_formula_units_Z   2
loop_
 _symmetry_equiv_pos_site_id
 _symmetry_equiv_pos_as_xyz
  1  'x, y, z'
loop_
 _atom_site_type_symbol
 _atom_site_label
 _atom_site_symmetry_multiplicity
 _atom_site_fract_x
 _atom_site_fract_y
 _atom_site_fract_z
 _atom_site_occupancy
  Na  Na0  1  0.65451683  0.66530569  0.47997860  1
  Na  Na1  1  0.34548317  0.33469431  0.97997860  1
  Na  Na2  1  0.34548317  0.33469431  0.52002140  1
  Na  Na3  1  0.65451683  0.66530569  0.02002140  1
  Na  Na4  1  0.97679155  0.53093948  0.75000000  1
  Na  Na5  1  0.02320845  0.46906052  0.25000000  1
  Na  Na6  1  0.66887946  0.16097856  0.75000000  1
  Na  Na7  1  0.33112054  0.83902144  0.25000000  1
  Na  Na8  1  0.00000000  0.00000000  0.00000000  1
  Na  Na9  1  0.00000000  0.00000000  0.50000000  1
  S  S10  1  0.75941098  0.87919380  0.25000000  1
  S  S11  1  0.24058902  0.12080620  0.75000000  1
  S  S12  1  0.23399521  0.67179796  0.98074374  1
  S  S13  1  0.76600479  0.32820204  0.48074374  1
  S  S14  1  0.76600479  0.32820204  0.01925626  1
  S  S15  1  0.23399521  0.67179796  0.51925626  1
  S  S16  1  0.72638862  0.82083547  0.75000000  1
  S  S17  1  0.27361138  0.17916453  0.25000000  1
  In  In18  1  0.63858452  0.17595065  0.25000000  1
  In  In19  1  0.36141548  0.82404935  0.75000000  1
