# generated using pymatgen
data_Na3InS3
_symmetry_space_group_name_H-M   'P 1'
_cell_length_a   7.46700518
_cell_length_b   10.53703713
_cell_length_c   10.53703713
_cell_angle_alpha   79.82874640
_cell_angle_beta   69.35361038
_cell_angle_gamma   69.35361041
_symmetry_Int_Tables_number   1
_chemical_formula_structural   Na3InS3
_chemical_formula_sum   'Na12 In4 S12'
_cell_volume   724.68760328
_cell_formula_units_Z   4
loop_
 _symmetry_equiv_pos_site_id
 _symmetry_equiv_pos_as_xyz
  1  'x, y, z'
loop_
 _atom_site_type_symbol
 _atom_site_label
 _atom_site_symmetry_multiplicity
 _atom_site_fract_x
 _atom_site_fract_y
 _atom_site_fract_z
 _atom_site_occupancy
  Na  Na0  1  0.45719755  0.17300997  0.00905249  1
  Na  Na1  1  0.04280245  0.99094751  0.82699003  1
  Na  Na2  1  0.54280245  0.82699003  0.99094751  1
  Na  Na3  1  0.95719755  0.00905249  0.17300997  1
  Na  Na4  1  0.58738420  0.36317969  0.23008960  1
  Na  Na5  1  0.91261580  0.76991040  0.63682031  1
  Na  Na6  1  0.41261580  0.63682031  0.76991040  1
  Na  Na7  1  0.08738420  0.23008960  0.36317969  1
  Na  Na8  1  0.75000000  0.27779626  0.72220374  1
  Na  Na9  1  0.25000000  0.72220374  0.27779626  1
  Na  Na10  1  0.75000000  0.56404358  0.43595642  1
  Na  Na11  1  0.25000000  0.43595642  0.56404358  1
  S  S12  1  0.26239385  0.41350153  0.88703804  1
  S  S13  1  0.76239385  0.88703804  0.41350153  1
  S  S14  1  0.23760615  0.11296196  0.58649847  1
  S  S15  1  0.73760615  0.58649847  0.11296196  1
  S  S16  1  0.81443203  0.21725469  0.99645939  1
  S  S17  1  0.68556797  0.00354061  0.78274531  1
  S  S18  1  0.18556797  0.78274531  0.00354061  1
  S  S19  1  0.31443203  0.99645939  0.21725469  1
  S  S20  1  0.82905990  0.52632503  0.70468574  1
  S  S21  1  0.67094010  0.29531426  0.47367497  1
  S  S22  1  0.17094010  0.47367497  0.29531426  1
  S  S23  1  0.32905990  0.70468574  0.52632503  1
  In  In24  1  0.40353328  0.91728972  0.42793493  1
  In  In25  1  0.59646672  0.08271028  0.57206507  1
  In  In26  1  0.90353328  0.42793493  0.91728972  1
  In  In27  1  0.09646672  0.57206507  0.08271028  1
