# generated using pymatgen
data_K5GaSe4
_symmetry_space_group_name_H-M   'P 1'
_cell_length_a   12.78246279
_cell_length_b   13.04715812
_cell_length_c   15.90900938
_cell_angle_alpha   90.00000000
_cell_angle_beta   90.00000000
_cell_angle_gamma   90.00000000
_symmetry_Int_Tables_number   1
_chemical_formula_structural   K5GaSe4
_chemical_formula_sum   'K40 Ga8 Se32'
_cell_volume   2653.22206729
_cell_formula_units_Z   8
loop_
 _symmetry_equiv_pos_site_id
 _symmetry_equiv_pos_as_xyz
  1  'x, y, z'
loop_
 _atom_site_type_symbol
 _atom_site_label
 _atom_site_symmetry_multiplicity
 _atom_site_fract_x
 _atom_site_fract_y
 _atom_site_fract_z
 _atom_site_occupancy
  K  K0  1  0.05402790  0.34001127  0.27802920  1
  K  K1  1  0.55402790  0.15998873  0.72197080  1
  K  K2  1  0.94597210  0.84001127  0.22197080  1
  K  K3  1  0.44597210  0.65998873  0.77802920  1
  K  K4  1  0.94597210  0.65998873  0.72197080  1
  K  K5  1  0.44597210  0.84001127  0.27802920  1
  K  K6  1  0.05402790  0.15998873  0.77802920  1
  K  K7  1  0.55402790  0.34001127  0.22197080  1
  K  K8  1  0.38651778  0.01414121  0.05892770  1
  K  K9  1  0.88651778  0.48585879  0.94107230  1
  K  K10  1  0.61348222  0.51414121  0.44107230  1
  K  K11  1  0.11348222  0.98585879  0.55892770  1
  K  K12  1  0.61348222  0.98585879  0.94107230  1
  K  K13  1  0.11348222  0.51414121  0.05892770  1
  K  K14  1  0.38651778  0.48585879  0.55892770  1
  K  K15  1  0.88651778  0.01414121  0.44107230  1
  K  K16  1  0.05890901  0.07038400  0.10936261  1
  K  K17  1  0.55890901  0.42961600  0.89063739  1
  K  K18  1  0.94109099  0.57038400  0.39063739  1
  K  K19  1  0.44109099  0.92961600  0.60936261  1
  K  K20  1  0.94109099  0.92961600  0.89063739  1
  K  K21  1  0.44109099  0.57038400  0.10936261  1
  K  K22  1  0.05890901  0.42961600  0.60936261  1
  K  K23  1  0.55890901  0.07038400  0.39063739  1
  K  K24  1  0.17955498  0.64749391  0.26837705  1
  K  K25  1  0.67955498  0.85250609  0.73162295  1
  K  K26  1  0.82044502  0.14749391  0.23162295  1
  K  K27  1  0.32044502  0.35250609  0.76837705  1
  K  K28  1  0.82044502  0.35250609  0.73162295  1
  K  K29  1  0.32044502  0.14749391  0.26837705  1
  K  K30  1  0.17955498  0.85250609  0.76837705  1
  K  K31  1  0.67955498  0.64749391  0.23162295  1
  K  K32  1  0.27187778  0.78857285  0.98460440  1
  K  K33  1  0.77187778  0.71142715  0.01539560  1
  K  K34  1  0.72812222  0.28857285  0.51539560  1
  K  K35  1  0.22812222  0.21142715  0.48460440  1
  K  K36  1  0.72812222  0.21142715  0.01539560  1
  K  K37  1  0.22812222  0.28857285  0.98460440  1
  K  K38  1  0.27187778  0.71142715  0.48460440  1
  K  K39  1  0.77187778  0.78857285  0.51539560  1
  Ga  Ga40  1  0.16463854  0.93470899  0.33564311  1
  Ga  Ga41  1  0.66463854  0.56529101  0.66435689  1
  Ga  Ga42  1  0.83536146  0.43470899  0.16435689  1
  Ga  Ga43  1  0.33536146  0.06529101  0.83564311  1
  Ga  Ga44  1  0.83536146  0.06529101  0.66435689  1
  Ga  Ga45  1  0.33536146  0.43470899  0.33564311  1
  Ga  Ga46  1  0.16463854  0.56529101  0.83564311  1
  Ga  Ga47  1  0.66463854  0.93470899  0.16435689  1
  Se  Se48  1  0.06999869  0.09842334  0.32190548  1
  Se  Se49  1  0.56999869  0.40157666  0.67809452  1
  Se  Se50  1  0.93000131  0.59842334  0.17809452  1
  Se  Se51  1  0.43000131  0.90157666  0.82190548  1
  Se  Se52  1  0.93000131  0.90157666  0.67809452  1
  Se  Se53  1  0.43000131  0.59842334  0.32190548  1
  Se  Se54  1  0.06999869  0.40157666  0.82190548  1
  Se  Se55  1  0.56999869  0.09842334  0.17809452  1
  Se  Se56  1  0.31920366  0.96524840  0.42716161  1
  Se  Se57  1  0.81920366  0.53475160  0.57283839  1
  Se  Se58  1  0.68079634  0.46524840  0.07283839  1
  Se  Se59  1  0.18079634  0.03475160  0.92716161  1
  Se  Se60  1  0.68079634  0.03475160  0.57283839  1
  Se  Se61  1  0.18079634  0.46524840  0.42716161  1
  Se  Se62  1  0.31920366  0.53475160  0.92716161  1
  Se  Se63  1  0.81920366  0.96524840  0.07283839  1
  Se  Se64  1  0.21408532  0.88480118  0.19121947  1
  Se  Se65  1  0.71408532  0.61519882  0.80878053  1
  Se  Se66  1  0.78591468  0.38480118  0.30878053  1
  Se  Se67  1  0.28591468  0.11519882  0.69121947  1
  Se  Se68  1  0.78591468  0.11519882  0.80878053  1
  Se  Se69  1  0.28591468  0.38480118  0.19121947  1
  Se  Se70  1  0.21408532  0.61519882  0.69121947  1
  Se  Se71  1  0.71408532  0.88480118  0.30878053  1
  Se  Se72  1  0.05438375  0.80840391  0.40885117  1
  Se  Se73  1  0.55438375  0.69159609  0.59114883  1
  Se  Se74  1  0.94561625  0.30840391  0.09114883  1
  Se  Se75  1  0.44561625  0.19159609  0.90885117  1
  Se  Se76  1  0.94561625  0.19159609  0.59114883  1
  Se  Se77  1  0.44561625  0.30840391  0.40885117  1
  Se  Se78  1  0.05438375  0.69159609  0.90885117  1
  Se  Se79  1  0.55438375  0.80840391  0.09114883  1
