# generated using pymatgen
data_KAlSb4
_symmetry_space_group_name_H-M   'P 1'
_cell_length_a   4.27920210
_cell_length_b   10.55059130
_cell_length_c   18.28990688
_cell_angle_alpha   90.00000000
_cell_angle_beta   90.00000000
_cell_angle_gamma   90.00000000
_symmetry_Int_Tables_number   1
_chemical_formula_structural   KAlSb4
_chemical_formula_sum   'K4 Al4 Sb16'
_cell_volume   825.75477247
_cell_formula_units_Z   4
loop_
 _symmetry_equiv_pos_site_id
 _symmetry_equiv_pos_as_xyz
  1  'x, y, z'
loop_
 _atom_site_type_symbol
 _atom_site_label
 _atom_site_symmetry_multiplicity
 _atom_site_fract_x
 _atom_site_fract_y
 _atom_site_fract_z
 _atom_site_occupancy
  Al  Al0  1  0.25000000  0.68078631  0.63162709  1
  Al  Al1  1  0.75000000  0.31921369  0.36837291  1
  Al  Al2  1  0.25000000  0.18078631  0.86837291  1
  Al  Al3  1  0.75000000  0.81921369  0.13162709  1
  K  K4  1  0.25000000  0.82364648  0.43443458  1
  K  K5  1  0.75000000  0.17635352  0.56556542  1
  K  K6  1  0.25000000  0.32364648  0.06556542  1
  K  K7  1  0.75000000  0.67635352  0.93443458  1
  Sb  Sb8  1  0.75000000  0.32879426  0.89910960  1
  Sb  Sb9  1  0.25000000  0.67120574  0.10089040  1
  Sb  Sb10  1  0.75000000  0.82879426  0.60089040  1
  Sb  Sb11  1  0.25000000  0.17120574  0.39910960  1
  Sb  Sb12  1  0.75000000  0.88709995  0.27461759  1
  Sb  Sb13  1  0.25000000  0.11290005  0.72538241  1
  Sb  Sb14  1  0.75000000  0.38709995  0.22538241  1
  Sb  Sb15  1  0.25000000  0.61290005  0.77461759  1
  Sb  Sb16  1  0.75000000  0.03582015  0.04968171  1
  Sb  Sb17  1  0.25000000  0.96417985  0.95031829  1
  Sb  Sb18  1  0.75000000  0.53582015  0.45031829  1
  Sb  Sb19  1  0.25000000  0.46417985  0.54968171  1
  Sb  Sb20  1  0.75000000  0.42983956  0.75287193  1
  Sb  Sb21  1  0.25000000  0.57016044  0.24712807  1
  Sb  Sb22  1  0.75000000  0.92983956  0.74712807  1
  Sb  Sb23  1  0.25000000  0.07016044  0.25287193  1
