# generated using pymatgen
data_KGaSb2
_symmetry_space_group_name_H-M   'P 1'
_cell_length_a   7.82282368
_cell_length_b   9.97629679
_cell_length_c   30.08393161
_cell_angle_alpha   90.00000000
_cell_angle_beta   90.00000000
_cell_angle_gamma   113.08339452
_symmetry_Int_Tables_number   1
_chemical_formula_structural   KGaSb2
_chemical_formula_sum   'K16 Ga16 Sb32'
_cell_volume   2159.85559489
_cell_formula_units_Z   16
loop_
 _symmetry_equiv_pos_site_id
 _symmetry_equiv_pos_as_xyz
  1  'x, y, z'
loop_
 _atom_site_type_symbol
 _atom_site_label
 _atom_site_symmetry_multiplicity
 _atom_site_fract_x
 _atom_site_fract_y
 _atom_site_fract_z
 _atom_site_occupancy
  K  K0  1  0.28075341  0.00000000  0.00000000  1
  K  K1  1  0.21924659  0.00000000  0.50000000  1
  K  K2  1  0.71924659  0.00000000  0.00000000  1
  K  K3  1  0.78075341  0.00000000  0.50000000  1
  K  K4  1  0.65689464  0.31378928  0.19373666  1
  K  K5  1  0.34310536  0.68621072  0.80626334  1
  K  K6  1  0.84310536  0.68621072  0.69373666  1
  K  K7  1  0.15689464  0.31378928  0.30626334  1
  K  K8  1  0.79809594  0.59619188  0.01097531  1
  K  K9  1  0.20190406  0.40380812  0.98902469  1
  K  K10  1  0.70190406  0.40380812  0.51097531  1
  K  K11  1  0.29809594  0.59619188  0.48902469  1
  K  K12  1  0.84805719  0.19611439  0.75000000  1
  K  K13  1  0.65194281  0.80388561  0.25000000  1
  K  K14  1  0.15194281  0.80388561  0.25000000  1
  K  K15  1  0.34805719  0.19611439  0.75000000  1
  Ga  Ga16  1  0.99442093  0.54449008  0.37505292  1
  Ga  Ga17  1  0.44993085  0.45550992  0.62494708  1
  Ga  Ga18  1  0.50557907  0.45550992  0.87505292  1
  Ga  Ga19  1  0.05006915  0.54449008  0.12494708  1
  Ga  Ga20  1  0.00557907  0.45550992  0.62494708  1
  Ga  Ga21  1  0.55006915  0.54449008  0.37505292  1
  Ga  Ga22  1  0.49442093  0.54449008  0.12494708  1
  Ga  Ga23  1  0.94993085  0.45550992  0.87505292  1
  Ga  Ga24  1  0.81131431  0.07717788  0.12965318  1
  Ga  Ga25  1  0.73413643  0.92282212  0.87034682  1
  Ga  Ga26  1  0.68868569  0.92282212  0.62965318  1
  Ga  Ga27  1  0.76586357  0.07717788  0.37034682  1
  Ga  Ga28  1  0.18868569  0.92282212  0.87034682  1
  Ga  Ga29  1  0.26586357  0.07717788  0.12965318  1
  Ga  Ga30  1  0.31131431  0.07717788  0.37034682  1
  Ga  Ga31  1  0.23413643  0.92282212  0.62965318  1
  Sb  Sb32  1  0.15153728  0.30307457  0.84625501  1
  Sb  Sb33  1  0.84846272  0.69692543  0.15374499  1
  Sb  Sb34  1  0.34846272  0.69692543  0.34625501  1
  Sb  Sb35  1  0.65153728  0.30307457  0.65374499  1
  Sb  Sb36  1  0.73505498  0.47010997  0.30752357  1
  Sb  Sb37  1  0.26494502  0.52989003  0.69247643  1
  Sb  Sb38  1  0.76494502  0.52989003  0.80752357  1
  Sb  Sb39  1  0.23505498  0.47010997  0.19247643  1
  Sb  Sb40  1  0.54678209  0.09356419  0.58492514  1
  Sb  Sb41  1  0.45321791  0.90643581  0.41507486  1
  Sb  Sb42  1  0.95321791  0.90643581  0.08492514  1
  Sb  Sb43  1  0.04678209  0.09356419  0.91507486  1
  Sb  Sb44  1  0.86167218  0.72334436  0.42057009  1
  Sb  Sb45  1  0.13832782  0.27665564  0.57942991  1
  Sb  Sb46  1  0.63832782  0.27665564  0.92057009  1
  Sb  Sb47  1  0.36167218  0.72334436  0.07942991  1
  Sb  Sb48  1  0.04327692  0.08655383  0.65491423  1
  Sb  Sb49  1  0.95672308  0.91344617  0.34508577  1
  Sb  Sb50  1  0.45672308  0.91344617  0.15491423  1
  Sb  Sb51  1  0.54327692  0.08655383  0.84508577  1
  Sb  Sb52  1  0.57906859  0.15813719  0.30494223  1
  Sb  Sb53  1  0.42093141  0.84186281  0.69505777  1
  Sb  Sb54  1  0.92093141  0.84186281  0.80494223  1
  Sb  Sb55  1  0.07906859  0.15813719  0.19505777  1
  Sb  Sb56  1  0.03127621  0.69494036  0.57610533  1
  Sb  Sb57  1  0.33633585  0.30505964  0.42389467  1
  Sb  Sb58  1  0.46872379  0.30505964  0.07610533  1
  Sb  Sb59  1  0.16366415  0.69494036  0.92389467  1
  Sb  Sb60  1  0.96872379  0.30505964  0.42389467  1
  Sb  Sb61  1  0.66366415  0.69494036  0.57610533  1
  Sb  Sb62  1  0.53127621  0.69494036  0.92389467  1
  Sb  Sb63  1  0.83633585  0.30505964  0.07610533  1
