# generated using pymatgen
data_Rb3GaP2
_symmetry_space_group_name_H-M   'P 1'
_cell_length_a   9.24714579
_cell_length_b   14.92556056
_cell_length_c   25.12701619
_cell_angle_alpha   90.00000000
_cell_angle_beta   90.00000000
_cell_angle_gamma   90.00000000
_symmetry_Int_Tables_number   1
_chemical_formula_structural   Rb3GaP2
_chemical_formula_sum   'Rb48 Ga16 P32'
_cell_volume   3468.00148890
_cell_formula_units_Z   16
loop_
 _symmetry_equiv_pos_site_id
 _symmetry_equiv_pos_as_xyz
  1  'x, y, z'
loop_
 _atom_site_type_symbol
 _atom_site_label
 _atom_site_symmetry_multiplicity
 _atom_site_fract_x
 _atom_site_fract_y
 _atom_site_fract_z
 _atom_site_occupancy
  P  P0  1  0.18565819  0.95406436  0.33450037  1
  P  P1  1  0.68565819  0.54593564  0.66549963  1
  P  P2  1  0.81434181  0.45406436  0.16549963  1
  P  P3  1  0.31434181  0.04593564  0.83450037  1
  P  P4  1  0.81434181  0.04593564  0.66549963  1
  P  P5  1  0.31434181  0.45406436  0.33450037  1
  P  P6  1  0.18565819  0.54593564  0.83450037  1
  P  P7  1  0.68565819  0.95406436  0.16549963  1
  P  P8  1  0.07856165  0.68103333  0.19568302  1
  P  P9  1  0.57856165  0.81896667  0.80431698  1
  P  P10  1  0.92143835  0.18103333  0.30431698  1
  P  P11  1  0.42143835  0.31896667  0.69568302  1
  P  P12  1  0.92143835  0.31896667  0.80431698  1
  P  P13  1  0.42143835  0.18103333  0.19568302  1
  P  P14  1  0.07856165  0.81896667  0.69568302  1
  P  P15  1  0.57856165  0.68103333  0.30431698  1
  P  P16  1  0.67593432  0.45578994  0.39661564  1
  P  P17  1  0.17593432  0.04421006  0.60338436  1
  P  P18  1  0.32406568  0.95578994  0.10338436  1
  P  P19  1  0.82406568  0.54421006  0.89661564  1
  P  P20  1  0.32406568  0.54421006  0.60338436  1
  P  P21  1  0.82406568  0.95578994  0.39661564  1
  P  P22  1  0.67593432  0.04421006  0.89661564  1
  P  P23  1  0.17593432  0.45578994  0.10338436  1
  P  P24  1  0.11899336  0.76434065  0.45555716  1
  P  P25  1  0.61899336  0.73565935  0.54444284  1
  P  P26  1  0.88100664  0.26434065  0.04444284  1
  P  P27  1  0.38100664  0.23565935  0.95555716  1
  P  P28  1  0.88100664  0.23565935  0.54444284  1
  P  P29  1  0.38100664  0.26434065  0.45555716  1
  P  P30  1  0.11899336  0.73565935  0.95555716  1
  P  P31  1  0.61899336  0.76434065  0.04444284  1
  Ga  Ga32  1  0.52852535  0.54512299  0.34112788  1
  Ga  Ga33  1  0.02852535  0.95487701  0.65887212  1
  Ga  Ga34  1  0.47147465  0.04512299  0.15887212  1
  Ga  Ga35  1  0.97147465  0.45487701  0.84112788  1
  Ga  Ga36  1  0.47147465  0.45487701  0.65887212  1
  Ga  Ga37  1  0.97147465  0.04512299  0.34112788  1
  Ga  Ga38  1  0.52852535  0.95487701  0.84112788  1
  Ga  Ga39  1  0.02852535  0.54512299  0.15887212  1
  Ga  Ga40  1  0.04917167  0.87683268  0.40148091  1
  Ga  Ga41  1  0.54917167  0.62316732  0.59851909  1
  Ga  Ga42  1  0.95082833  0.37683268  0.09851909  1
  Ga  Ga43  1  0.45082833  0.12316732  0.90148091  1
  Ga  Ga44  1  0.95082833  0.12316732  0.59851909  1
  Ga  Ga45  1  0.45082833  0.37683268  0.40148091  1
  Ga  Ga46  1  0.04917167  0.62316732  0.90148091  1
  Ga  Ga47  1  0.54917167  0.87683268  0.09851909  1
  Rb  Rb48  1  0.21374474  0.68211956  0.32994240  1
  Rb  Rb49  1  0.71374474  0.81788044  0.67005760  1
  Rb  Rb50  1  0.78625526  0.18211956  0.17005760  1
  Rb  Rb51  1  0.28625526  0.31788044  0.82994240  1
  Rb  Rb52  1  0.78625526  0.31788044  0.67005760  1
  Rb  Rb53  1  0.28625526  0.18211956  0.32994240  1
  Rb  Rb54  1  0.21374474  0.81788044  0.82994240  1
  Rb  Rb55  1  0.71374474  0.68211956  0.17005760  1
  Rb  Rb56  1  0.78129234  0.67894803  0.42835860  1
  Rb  Rb57  1  0.28129234  0.82105197  0.57164140  1
  Rb  Rb58  1  0.21870766  0.17894803  0.07164140  1
  Rb  Rb59  1  0.71870766  0.32105197  0.92835860  1
  Rb  Rb60  1  0.21870766  0.32105197  0.57164140  1
  Rb  Rb61  1  0.71870766  0.17894803  0.42835860  1
  Rb  Rb62  1  0.78129234  0.82105197  0.92835860  1
  Rb  Rb63  1  0.28129234  0.67894803  0.07164140  1
  Rb  Rb64  1  0.89055995  0.54028542  0.29079129  1
  Rb  Rb65  1  0.39055995  0.95971458  0.70920871  1
  Rb  Rb66  1  0.10944005  0.04028542  0.20920871  1
  Rb  Rb67  1  0.60944005  0.45971458  0.79079129  1
  Rb  Rb68  1  0.10944005  0.45971458  0.70920871  1
  Rb  Rb69  1  0.60944005  0.04028542  0.29079129  1
  Rb  Rb70  1  0.89055995  0.95971458  0.79079129  1
  Rb  Rb71  1  0.39055995  0.54028542  0.20920871  1
  Rb  Rb72  1  0.35916416  0.59451056  0.47277554  1
  Rb  Rb73  1  0.85916416  0.90548944  0.52722446  1
  Rb  Rb74  1  0.64083584  0.09451056  0.02722446  1
  Rb  Rb75  1  0.14083584  0.40548944  0.97277554  1
  Rb  Rb76  1  0.64083584  0.40548944  0.52722446  1
  Rb  Rb77  1  0.14083584  0.09451056  0.47277554  1
  Rb  Rb78  1  0.35916416  0.90548944  0.97277554  1
  Rb  Rb79  1  0.85916416  0.59451056  0.02722446  1
  Rb  Rb80  1  0.85942642  0.82972082  0.27588182  1
  Rb  Rb81  1  0.35942642  0.67027918  0.72411818  1
  Rb  Rb82  1  0.14057358  0.32972082  0.22411818  1
  Rb  Rb83  1  0.64057358  0.17027918  0.77588182  1
  Rb  Rb84  1  0.14057358  0.17027918  0.72411818  1
  Rb  Rb85  1  0.64057358  0.32972082  0.27588182  1
  Rb  Rb86  1  0.85942642  0.67027918  0.77588182  1
  Rb  Rb87  1  0.35942642  0.82972082  0.22411818  1
  Rb  Rb88  1  0.45994451  0.85300267  0.41386925  1
  Rb  Rb89  1  0.95994451  0.64699733  0.58613075  1
  Rb  Rb90  1  0.54005549  0.35300267  0.08613075  1
  Rb  Rb91  1  0.04005549  0.14699733  0.91386925  1
  Rb  Rb92  1  0.54005549  0.14699733  0.58613075  1
  Rb  Rb93  1  0.04005549  0.35300267  0.41386925  1
  Rb  Rb94  1  0.45994451  0.64699733  0.91386925  1
  Rb  Rb95  1  0.95994451  0.85300267  0.08613075  1
