# generated using pymatgen
data_K6Sn2Se7
_symmetry_space_group_name_H-M   'P 1'
_cell_length_a   12.57401377
_cell_length_b   17.35977230
_cell_length_c   20.07002517
_cell_angle_alpha   102.71805084
_cell_angle_beta   90.00000000
_cell_angle_gamma   90.00000000
_symmetry_Int_Tables_number   1
_chemical_formula_structural   K6Sn2Se7
_chemical_formula_sum   'K48 Sn16 Se56'
_cell_volume   4273.44056844
_cell_formula_units_Z   8
loop_
 _symmetry_equiv_pos_site_id
 _symmetry_equiv_pos_as_xyz
  1  'x, y, z'
loop_
 _atom_site_type_symbol
 _atom_site_label
 _atom_site_symmetry_multiplicity
 _atom_site_fract_x
 _atom_site_fract_y
 _atom_site_fract_z
 _atom_site_occupancy
  K  K0  1  0.95022492  0.35028280  0.68527113  1
  K  K1  1  0.45022492  0.64971720  0.81472887  1
  K  K2  1  0.04977508  0.64971720  0.31472887  1
  K  K3  1  0.54977508  0.35028280  0.18527113  1
  K  K4  1  0.88517727  0.87619521  0.94593213  1
  K  K5  1  0.38517727  0.12380479  0.55406787  1
  K  K6  1  0.11482273  0.12380479  0.05406787  1
  K  K7  1  0.61482273  0.87619521  0.44593213  1
  K  K8  1  0.16248162  0.25511242  0.25915371  1
  K  K9  1  0.66248162  0.74488758  0.24084629  1
  K  K10  1  0.83751838  0.74488758  0.74084629  1
  K  K11  1  0.33751838  0.25511242  0.75915371  1
  K  K12  1  0.67354379  0.19314930  0.52296010  1
  K  K13  1  0.17354379  0.80685070  0.97703990  1
  K  K14  1  0.32645621  0.80685070  0.47703990  1
  K  K15  1  0.82645621  0.19314930  0.02296010  1
  K  K16  1  0.92145751  0.37521978  0.16964172  1
  K  K17  1  0.42145751  0.62478022  0.33035828  1
  K  K18  1  0.07854249  0.62478022  0.83035828  1
  K  K19  1  0.57854249  0.37521978  0.66964172  1
  K  K20  1  0.93965174  0.36029415  0.42142347  1
  K  K21  1  0.43965174  0.63970585  0.07857653  1
  K  K22  1  0.06034826  0.63970585  0.57857653  1
  K  K23  1  0.56034826  0.36029415  0.92142347  1
  K  K24  1  0.77973480  0.00990290  0.12949125  1
  K  K25  1  0.27973480  0.99009710  0.37050875  1
  K  K26  1  0.22026520  0.99009710  0.87050875  1
  K  K27  1  0.72026520  0.00990290  0.62949125  1
  K  K28  1  0.95004350  0.78063094  0.15199286  1
  K  K29  1  0.45004350  0.21936906  0.34800714  1
  K  K30  1  0.04995650  0.21936906  0.84800714  1
  K  K31  1  0.54995650  0.78063094  0.65199286  1
  K  K32  1  0.23098878  0.45436898  0.69532665  1
  K  K33  1  0.73098878  0.54563102  0.80467335  1
  K  K34  1  0.76901122  0.54563102  0.30467335  1
  K  K35  1  0.26901122  0.45436898  0.19532665  1
  K  K36  1  0.00277975  0.03023736  0.26675073  1
  K  K37  1  0.50277975  0.96976264  0.23324927  1
  K  K38  1  0.99722025  0.96976264  0.73324927  1
  K  K39  1  0.49722025  0.03023736  0.76675073  1
  K  K40  1  0.02783125  0.13630311  0.53258608  1
  K  K41  1  0.52783125  0.86369689  0.96741392  1
  K  K42  1  0.97216875  0.86369689  0.46741392  1
  K  K43  1  0.47216875  0.13630311  0.03258608  1
  K  K44  1  0.60896287  0.43363892  0.44672013  1
  K  K45  1  0.10896287  0.56636108  0.05327987  1
  K  K46  1  0.39103713  0.56636108  0.55327987  1
  K  K47  1  0.89103713  0.43363892  0.94672013  1
  Se  Se48  1  0.81779218  0.01794839  0.48123745  1
  Se  Se49  1  0.31779218  0.98205161  0.01876255  1
  Se  Se50  1  0.18220782  0.98205161  0.51876255  1
  Se  Se51  1  0.68220782  0.01794839  0.98123745  1
  Se  Se52  1  0.82429750  0.16865147  0.36780830  1
  Se  Se53  1  0.32429750  0.83134853  0.13219170  1
  Se  Se54  1  0.17570250  0.83134853  0.63219170  1
  Se  Se55  1  0.67570250  0.16865147  0.86780830  1
  Se  Se56  1  0.78274755  0.36856582  0.55854567  1
  Se  Se57  1  0.28274755  0.63143418  0.94145433  1
  Se  Se58  1  0.21725245  0.63143418  0.44145433  1
  Se  Se59  1  0.71725245  0.36856582  0.05854567  1
  Se  Se60  1  0.83187957  0.56007436  0.49110216  1
  Se  Se61  1  0.33187957  0.43992564  0.00889784  1
  Se  Se62  1  0.16812043  0.43992564  0.50889784  1
  Se  Se63  1  0.66812043  0.56007436  0.99110216  1
  Se  Se64  1  0.75983823  0.93195276  0.26527609  1
  Se  Se65  1  0.25983823  0.06804724  0.23472391  1
  Se  Se66  1  0.24016177  0.06804724  0.73472391  1
  Se  Se67  1  0.74016177  0.93195276  0.76527609  1
  Se  Se68  1  0.92667943  0.18176672  0.17910023  1
  Se  Se69  1  0.42667943  0.81823328  0.32089977  1
  Se  Se70  1  0.07332057  0.81823328  0.82089977  1
  Se  Se71  1  0.57332057  0.18176672  0.67910023  1
  Se  Se72  1  0.59528641  0.15311265  0.20097285  1
  Se  Se73  1  0.09528641  0.84688735  0.29902715  1
  Se  Se74  1  0.40471359  0.84688735  0.79902715  1
  Se  Se75  1  0.90471359  0.15311265  0.70097285  1
  Se  Se76  1  0.93454944  0.55513507  0.69202162  1
  Se  Se77  1  0.43454944  0.44486493  0.80797838  1
  Se  Se78  1  0.06545056  0.44486493  0.30797838  1
  Se  Se79  1  0.56545056  0.55513507  0.19202162  1
  Se  Se80  1  0.53150325  0.06044289  0.40318212  1
  Se  Se81  1  0.03150325  0.93955711  0.09681788  1
  Se  Se82  1  0.46849675  0.93955711  0.59681788  1
  Se  Se83  1  0.96849675  0.06044289  0.90318212  1
  Se  Se84  1  0.74103964  0.36234887  0.30257605  1
  Se  Se85  1  0.24103964  0.63765113  0.19742395  1
  Se  Se86  1  0.25896036  0.63765113  0.69742395  1
  Se  Se87  1  0.75896036  0.36234887  0.80257605  1
  Se  Se88  1  0.60897488  0.57189604  0.65974617  1
  Se  Se89  1  0.10897488  0.42810396  0.84025383  1
  Se  Se90  1  0.39102512  0.42810396  0.34025383  1
  Se  Se91  1  0.89102512  0.57189604  0.15974617  1
  Se  Se92  1  0.18920959  0.27084810  0.61997785  1
  Se  Se93  1  0.68920959  0.72915190  0.88002215  1
  Se  Se94  1  0.81079041  0.72915190  0.38002215  1
  Se  Se95  1  0.31079041  0.27084810  0.11997785  1
  Se  Se96  1  0.45798371  0.31812461  0.51761036  1
  Se  Se97  1  0.95798371  0.68187539  0.98238964  1
  Se  Se98  1  0.54201629  0.68187539  0.48238964  1
  Se  Se99  1  0.04201629  0.31812461  0.01761036  1
  Se  Se100  1  0.19447994  0.19709192  0.40777242  1
  Se  Se101  1  0.69447994  0.80290808  0.09222758  1
  Se  Se102  1  0.80552006  0.80290808  0.59222758  1
  Se  Se103  1  0.30552006  0.19709192  0.90777242  1
  Sn  Sn104  1  0.76435092  0.21482330  0.25658268  1
  Sn  Sn105  1  0.26435092  0.78517670  0.24341732  1
  Sn  Sn106  1  0.23564908  0.78517670  0.74341732  1
  Sn  Sn107  1  0.73564908  0.21482330  0.75658268  1
  Sn  Sn108  1  0.72700213  0.03594778  0.37244592  1
  Sn  Sn109  1  0.22700213  0.96405222  0.12755408  1
  Sn  Sn110  1  0.27299787  0.96405222  0.62755408  1
  Sn  Sn111  1  0.77299787  0.03594778  0.87244592  1
  Sn  Sn112  1  0.78433089  0.51724169  0.60666597  1
  Sn  Sn113  1  0.28433089  0.48275831  0.89333403  1
  Sn  Sn114  1  0.21566911  0.48275831  0.39333403  1
  Sn  Sn115  1  0.71566911  0.51724169  0.10666597  1
  Sn  Sn116  1  0.74268744  0.69810316  0.49107015  1
  Sn  Sn117  1  0.24268744  0.30189684  0.00892985  1
  Sn  Sn118  1  0.25731256  0.30189684  0.50892985  1
  Sn  Sn119  1  0.75731256  0.69810316  0.99107015  1
