# generated using pymatgen
data_LiMn2OF3
_symmetry_space_group_name_H-M   'P 1'
_cell_length_a   6.29208192
_cell_length_b   6.29208192
_cell_length_c   9.01258323
_cell_angle_alpha   90.00000000
_cell_angle_beta   90.00000000
_cell_angle_gamma   90.00000000
_symmetry_Int_Tables_number   1
_chemical_formula_structural   LiMn2OF3
_chemical_formula_sum   'Li4 Mn8 O4 F12'
_cell_volume   356.81082778
_cell_formula_units_Z   4
loop_
 _symmetry_equiv_pos_site_id
 _symmetry_equiv_pos_as_xyz
  1  'x, y, z'
loop_
 _atom_site_type_symbol
 _atom_site_label
 _atom_site_symmetry_multiplicity
 _atom_site_fract_x
 _atom_site_fract_y
 _atom_site_fract_z
 _atom_site_occupancy
  Li  Li0  1  0.25091290  0.51165613  0.25074957  1
  Li  Li1  1  0.48834387  0.25091290  0.00074957  1
  Li  Li2  1  0.51165613  0.74908710  0.50074957  1
  Li  Li3  1  0.74908710  0.48834387  0.75074957  1
  Mn  Mn4  1  0.01361080  0.25241736  0.98453418  1
  Mn  Mn5  1  0.98638920  0.74758264  0.48453418  1
  Mn  Mn6  1  0.22607906  0.25625310  0.63487047  1
  Mn  Mn7  1  0.25625310  0.77392094  0.88487047  1
  Mn  Mn8  1  0.25241736  0.98638920  0.23453418  1
  Mn  Mn9  1  0.74758264  0.01361080  0.73453418  1
  Mn  Mn10  1  0.74374690  0.22607906  0.38487047  1
  Mn  Mn11  1  0.77392094  0.74374690  0.13487047  1
  O  O12  1  0.03248941  0.74490190  0.25877039  1
  O  O13  1  0.25509810  0.03248941  0.00877039  1
  O  O14  1  0.74490190  0.96751059  0.50877039  1
  O  O15  1  0.96751059  0.25509810  0.75877039  1
  F  F16  1  0.01017852  0.26154941  0.24177065  1
  F  F17  1  0.26154941  0.98982148  0.49177065  1
  F  F18  1  0.26248001  0.49810487  0.01444564  1
  F  F19  1  0.25472565  0.51297579  0.48985909  1
  F  F20  1  0.50189513  0.26248001  0.76444464  1
  F  F21  1  0.51297579  0.74527435  0.73985909  1
  F  F22  1  0.48702421  0.25472565  0.23985909  1
  F  F23  1  0.49810487  0.73751999  0.26444464  1
  F  F24  1  0.73751999  0.50189513  0.51444464  1
  F  F25  1  0.74527435  0.48702421  0.98985909  1
  F  F26  1  0.73845059  0.01017852  0.99177065  1
  F  F27  1  0.98982148  0.73845059  0.74177065  1
