# generated using pymatgen
data_Cu2PbO2
_symmetry_space_group_name_H-M   'P 1'
_cell_length_a   5.88267587
_cell_length_b   5.88267587
_cell_length_c   6.10568007
_cell_angle_alpha   118.35871345
_cell_angle_beta   118.35871352
_cell_angle_gamma   90.99245509
_symmetry_Int_Tables_number   1
_chemical_formula_structural   Cu2PbO2
_chemical_formula_sum   'Cu4 Pb2 O4'
_cell_volume   155.36140983
_cell_formula_units_Z   2
loop_
 _symmetry_equiv_pos_site_id
 _symmetry_equiv_pos_as_xyz
  1  'x, y, z'
loop_
 _atom_site_type_symbol
 _atom_site_label
 _atom_site_symmetry_multiplicity
 _atom_site_fract_x
 _atom_site_fract_y
 _atom_site_fract_z
 _atom_site_occupancy
  O  O0  1  0.00636566  0.64671738  0.29109200  1
  O  O1  1  0.35328262  0.99363434  0.20890800  1
  O  O2  1  0.99363434  0.35328262  0.70890800  1
  O  O3  1  0.64671738  0.00636566  0.79109200  1
  Cu  Cu4  1  0.50000000  0.00000000  0.00000000  1
  Cu  Cu5  1  0.00000000  0.50000000  0.50000000  1
  Cu  Cu6  1  0.00000000  0.00000000  0.50000000  1
  Cu  Cu7  1  0.00000000  0.00000000  0.00000000  1
  Pb  Pb8  1  0.37741362  0.62258638  0.25000000  1
  Pb  Pb9  1  0.62258638  0.37741362  0.75000000  1
