# generated using pymatgen
data_NaAlI4
_symmetry_space_group_name_H-M   'P 1'
_cell_length_a   8.47068885
_cell_length_b   8.39506479
_cell_length_c   15.16941469
_cell_angle_alpha   90.00000000
_cell_angle_beta   90.00000000
_cell_angle_gamma   90.00000000
_symmetry_Int_Tables_number   1
_chemical_formula_structural   NaAlI4
_chemical_formula_sum   'Na4 Al4 I16'
_cell_volume   1078.72714001
_cell_formula_units_Z   4
loop_
 _symmetry_equiv_pos_site_id
 _symmetry_equiv_pos_as_xyz
  1  'x, y, z'
loop_
 _atom_site_type_symbol
 _atom_site_label
 _atom_site_symmetry_multiplicity
 _atom_site_fract_x
 _atom_site_fract_y
 _atom_site_fract_z
 _atom_site_occupancy
  Na  Na0  1  0.55407597  0.75000000  0.84951141  1
  Na  Na1  1  0.05407597  0.25000000  0.65048859  1
  Na  Na2  1  0.44592403  0.25000000  0.15048859  1
  Na  Na3  1  0.94592403  0.75000000  0.34951141  1
  Al  Al4  1  0.69670392  0.75000000  0.10177523  1
  Al  Al5  1  0.19670392  0.25000000  0.39822477  1
  Al  Al6  1  0.30329608  0.25000000  0.89822477  1
  Al  Al7  1  0.80329608  0.75000000  0.60177523  1
  I  I8  1  0.87203167  0.75000000  0.96517503  1
  I  I9  1  0.37203167  0.25000000  0.53482497  1
  I  I10  1  0.12796833  0.25000000  0.03482497  1
  I  I11  1  0.62796833  0.75000000  0.46517503  1
  I  I12  1  0.09289981  0.75000000  0.55222541  1
  I  I13  1  0.59289981  0.25000000  0.94777459  1
  I  I14  1  0.90710019  0.25000000  0.44777459  1
  I  I15  1  0.40710019  0.75000000  0.05222541  1
  I  I16  1  0.24446765  1.00573626  0.80013444  1
  I  I17  1  0.74446765  -0.00573626  0.69986556  1
  I  I18  1  0.75553235  0.50573626  0.19986556  1
  I  I19  1  0.25553235  0.49426374  0.30013444  1
  I  I20  1  0.75553235  -0.00573626  0.19986556  1
  I  I21  1  0.25553235  1.00573626  0.30013444  1
  I  I22  1  0.24446765  0.49426374  0.80013444  1
  I  I23  1  0.74446765  0.50573626  0.69986556  1
