# generated using pymatgen
data_KGaI4
_symmetry_space_group_name_H-M   'P 1'
_cell_length_a   8.21144393
_cell_length_b   8.56903953
_cell_length_c   16.64005564
_cell_angle_alpha   94.85915606
_cell_angle_beta   90.00000000
_cell_angle_gamma   90.00000000
_symmetry_Int_Tables_number   1
_chemical_formula_structural   KGaI4
_chemical_formula_sum   'K4 Ga4 I16'
_cell_volume   1166.65583333
_cell_formula_units_Z   4
loop_
 _symmetry_equiv_pos_site_id
 _symmetry_equiv_pos_as_xyz
  1  'x, y, z'
loop_
 _atom_site_type_symbol
 _atom_site_label
 _atom_site_symmetry_multiplicity
 _atom_site_fract_x
 _atom_site_fract_y
 _atom_site_fract_z
 _atom_site_occupancy
  K  K0  1  0.50285045  0.74268808  0.63986727  1
  K  K1  1  0.00285045  0.25731192  0.86013273  1
  K  K2  1  0.49714955  0.25731192  0.36013273  1
  K  K3  1  0.99714955  0.74268808  0.13986727  1
  Ga  Ga4  1  0.35823150  0.75589960  0.36093617  1
  Ga  Ga5  1  0.85823150  0.24410040  0.13906383  1
  Ga  Ga6  1  0.64176850  0.24410040  0.63906383  1
  Ga  Ga7  1  0.14176850  0.75589960  0.86093617  1
  I  I8  1  0.85947972  0.86103096  0.90868568  1
  I  I9  1  0.35947972  0.13896904  0.59131432  1
  I  I10  1  0.14052028  0.13896904  0.09131432  1
  I  I11  1  0.64052028  0.86103096  0.40868568  1
  I  I12  1  0.38920964  0.58716447  0.22459487  1
  I  I13  1  0.88920964  0.41283553  0.27540513  1
  I  I14  1  0.61079036  0.41283553  0.77540513  1
  I  I15  1  0.11079036  0.58716447  0.72459487  1
  I  I16  1  0.65529169  0.01888429  0.15947973  1
  I  I17  1  0.15529169  0.98111571  0.34052027  1
  I  I18  1  0.34470831  0.98111571  0.84052027  1
  I  I19  1  0.84470831  0.01888429  0.65947973  1
  I  I20  1  0.24271127  0.58049898  0.46742425  1
  I  I21  1  0.74271127  0.41950102  0.03257575  1
  I  I22  1  0.75728873  0.41950102  0.53257575  1
  I  I23  1  0.25728873  0.58049898  0.96742425  1
