# generated using pymatgen
data_Er5C2Br9
_symmetry_space_group_name_H-M   'P 1'
_cell_length_a   10.15748122
_cell_length_b   11.79412174
_cell_length_c   16.45405176
_cell_angle_alpha   90.00000000
_cell_angle_beta   90.00000000
_cell_angle_gamma   104.95284982
_symmetry_Int_Tables_number   1
_chemical_formula_structural   Er5C2Br9
_chemical_formula_sum   'Er20 C8 Br36'
_cell_volume   1904.42501287
_cell_formula_units_Z   4
loop_
 _symmetry_equiv_pos_site_id
 _symmetry_equiv_pos_as_xyz
  1  'x, y, z'
loop_
 _atom_site_type_symbol
 _atom_site_label
 _atom_site_symmetry_multiplicity
 _atom_site_fract_x
 _atom_site_fract_y
 _atom_site_fract_z
 _atom_site_occupancy
  C  C0  1  0.50838785  0.38208112  0.58850369  1
  C  C1  1  0.99161215  0.11791888  0.08850369  1
  C  C2  1  0.49161215  0.61791888  0.41149631  1
  C  C3  1  0.00838785  0.88208112  0.91149631  1
  C  C4  1  0.09538174  0.16853007  0.02944357  1
  C  C5  1  0.40461826  0.33146993  0.52944357  1
  C  C6  1  0.90461826  0.83146993  0.97055643  1
  C  C7  1  0.59538174  0.66853007  0.47055643  1
  Br  Br8  1  0.36568427  0.06386276  0.68226439  1
  Br  Br9  1  0.13431573  0.43613724  0.18226439  1
  Br  Br10  1  0.63431573  0.93613724  0.31773561  1
  Br  Br11  1  0.86568427  0.56386276  0.81773561  1
  Br  Br12  1  0.06826279  0.15564880  0.56661409  1
  Br  Br13  1  0.43173721  0.34435120  0.06661409  1
  Br  Br14  1  0.93173721  0.84435120  0.43338591  1
  Br  Br15  1  0.56826279  0.65564880  0.93338591  1
  Br  Br16  1  0.72822034  0.26515795  0.43866490  1
  Br  Br17  1  0.77177966  0.23484205  0.93866490  1
  Br  Br18  1  0.27177966  0.73484205  0.56133510  1
  Br  Br19  1  0.22822034  0.76515795  0.06133510  1
  Br  Br20  1  0.18916884  0.46870995  0.67115207  1
  Br  Br21  1  0.31083116  0.03129005  0.17115207  1
  Br  Br22  1  0.81083116  0.53129005  0.32884793  1
  Br  Br23  1  0.68916884  0.96870995  0.82884793  1
  Br  Br24  1  0.95529119  0.86009964  0.69340472  1
  Br  Br25  1  0.54470881  0.63990036  0.19340472  1
  Br  Br26  1  0.04470881  0.13990036  0.30659528  1
  Br  Br27  1  0.45529119  0.36009964  0.80659528  1
  Br  Br28  1  0.09409949  0.17328839  0.79855412  1
  Br  Br29  1  0.40590051  0.32671161  0.29855412  1
  Br  Br30  1  0.90590051  0.82671161  0.20144588  1
  Br  Br31  1  0.59409949  0.67328839  0.70144588  1
  Br  Br32  1  0.24907649  0.74890997  0.82016341  1
  Br  Br33  1  0.25092351  0.75109003  0.32016341  1
  Br  Br34  1  0.75092351  0.25109003  0.17983659  1
  Br  Br35  1  0.74907649  0.24890997  0.67983659  1
  Br  Br36  1  0.13832921  0.45827566  0.94283509  1
  Br  Br37  1  0.36167079  0.04172434  0.44283509  1
  Br  Br38  1  0.86167079  0.54172434  0.05716491  1
  Br  Br39  1  0.63832921  0.95827566  0.55716491  1
  Br  Br40  1  0.35478726  0.05936046  0.92967073  1
  Br  Br41  1  0.14521274  0.44063954  0.42967073  1
  Br  Br42  1  0.64521274  0.94063954  0.07032927  1
  Br  Br43  1  0.85478726  0.55936046  0.57032927  1
  Er  Er44  1  0.84464363  0.05429826  0.18617565  1
  Er  Er45  1  0.65535637  0.44570174  0.68617565  1
  Er  Er46  1  0.15535637  0.94570174  0.81382435  1
  Er  Er47  1  0.34464363  0.55429826  0.31382435  1
  Er  Er48  1  0.74848360  0.73750425  0.05597273  1
  Er  Er49  1  0.75151640  0.76249575  0.55597273  1
  Er  Er50  1  0.25151640  0.26249575  0.94402727  1
  Er  Er51  1  0.24848360  0.23750425  0.44402727  1
  Er  Er52  1  0.54456287  0.19004951  0.55847846  1
  Er  Er53  1  0.95543713  0.30995049  0.05847846  1
  Er  Er54  1  0.45543713  0.80995049  0.44152154  1
  Er  Er55  1  0.04456287  0.69004951  0.94152154  1
  Er  Er56  1  0.37220130  0.53298007  0.53763151  1
  Er  Er57  1  0.12779870  0.96701993  0.03763151  1
  Er  Er58  1  0.62779870  0.46701993  0.46236849  1
  Er  Er59  1  0.87220130  0.03298007  0.96236849  1
  Er  Er60  1  0.29368911  0.28054457  0.66066093  1
  Er  Er61  1  0.20631089  0.21945543  0.16066093  1
  Er  Er62  1  0.70631089  0.71945543  0.33933907  1
  Er  Er63  1  0.79368911  0.78054457  0.83933907  1
