# generated using pymatgen
data_SbCl3F2
_symmetry_space_group_name_H-M   'P 1'
_cell_length_a   7.52039401
_cell_length_b   10.16171925
_cell_length_c   10.16171925
_cell_angle_alpha   82.12997779
_cell_angle_beta   68.28219247
_cell_angle_gamma   68.28219247
_symmetry_Int_Tables_number   1
_chemical_formula_structural   SbCl3F2
_chemical_formula_sum   'Sb4 Cl12 F8'
_cell_volume   670.22846839
_cell_formula_units_Z   4
loop_
 _symmetry_equiv_pos_site_id
 _symmetry_equiv_pos_as_xyz
  1  'x, y, z'
loop_
 _atom_site_type_symbol
 _atom_site_label
 _atom_site_symmetry_multiplicity
 _atom_site_fract_x
 _atom_site_fract_y
 _atom_site_fract_z
 _atom_site_occupancy
  F  F0  1  0.30366331  0.16010449  0.76028940  1
  F  F1  1  0.93604730  0.76028940  0.83989551  1
  F  F2  1  0.53623221  0.23971060  0.16010449  1
  F  F3  1  0.22405719  0.83989551  0.23971060  1
  F  F4  1  0.37617426  0.04235394  0.19853970  1
  F  F5  1  0.58147181  0.80146030  0.04235394  1
  F  F6  1  0.42528605  0.19853970  0.95764606  1
  F  F7  1  0.61706789  0.95764606  0.80146030  1
  Cl  Cl8  1  0.70444930  0.09859133  0.50123141  1
  Cl  Cl9  1  0.57025123  0.58471490  0.29738707  1
  Cl  Cl10  1  0.84503387  0.70261293  0.58471490  1
  Cl  Cl11  1  0.45235320  0.41528510  0.70261293  1
  Cl  Cl12  1  0.77732729  0.85582405  0.22655863  1
  Cl  Cl13  1  0.99611408  0.22655863  0.14417595  1
  Cl  Cl14  1  0.36684866  0.77344137  0.85582405  1
  Cl  Cl15  1  0.85970997  0.14417595  0.77344137  1
  Cl  Cl16  1  0.19695937  0.49876859  0.09859133  1
  Cl  Cl17  1  0.30427204  0.90140867  0.49876859  1
  Cl  Cl18  1  0.13236169  0.29738707  0.41528510  1
  Cl  Cl19  1  0.79431929  0.50123141  0.90140867  1
  Sb  Sb20  1  0.56152039  0.17174275  0.73519497  1
  Sb  Sb21  1  0.70328464  0.73519497  0.82825725  1
  Sb  Sb22  1  0.26673686  0.26480503  0.17174275  1
  Sb  Sb23  1  0.46845811  0.82825725  0.26480503  1
