# generated using pymatgen
data_K2Ge2Se5
_symmetry_space_group_name_H-M   'P 1'
_cell_length_a   10.07485519
_cell_length_b   10.43443054
_cell_length_c   11.91312318
_cell_angle_alpha   90.00000000
_cell_angle_beta   90.00000000
_cell_angle_gamma   90.15168028
_symmetry_Int_Tables_number   1
_chemical_formula_structural   K2Ge2Se5
_chemical_formula_sum   'K8 Ge8 Se20'
_cell_volume   1252.36717334
_cell_formula_units_Z   4
loop_
 _symmetry_equiv_pos_site_id
 _symmetry_equiv_pos_as_xyz
  1  'x, y, z'
loop_
 _atom_site_type_symbol
 _atom_site_label
 _atom_site_symmetry_multiplicity
 _atom_site_fract_x
 _atom_site_fract_y
 _atom_site_fract_z
 _atom_site_occupancy
  K  K0  1  0.36164098  0.66605098  0.49251869  1
  K  K1  1  0.63835902  0.33394902  0.99251869  1
  K  K2  1  0.63835902  0.33394902  0.50748131  1
  K  K3  1  0.36164098  0.66605098  0.00748131  1
  K  K4  1  0.95922321  0.58149750  0.75000000  1
  K  K5  1  0.04077679  0.41850250  0.25000000  1
  K  K6  1  0.59377973  0.89259507  0.75000000  1
  K  K7  1  0.40622027  0.10740493  0.25000000  1
  Ge  Ge8  1  0.76705063  0.73681164  0.08789082  1
  Ge  Ge9  1  0.23294937  0.26318836  0.58789082  1
  Ge  Ge10  1  0.23294937  0.26318836  0.91210918  1
  Ge  Ge11  1  0.76705063  0.73681164  0.41210918  1
  Ge  Ge12  1  0.91135197  0.17921251  0.75000000  1
  Ge  Ge13  1  0.08864803  0.82078749  0.25000000  1
  Ge  Ge14  1  0.20135380  0.94605131  0.75000000  1
  Ge  Ge15  1  0.79864620  0.05394869  0.25000000  1
  Se  Se16  1  0.68371110  0.64370969  0.57409839  1
  Se  Se17  1  0.31628890  0.35629031  0.07409839  1
  Se  Se18  1  0.31628890  0.35629031  0.42590161  1
  Se  Se19  1  0.68371110  0.64370969  0.92590161  1
  Se  Se20  1  0.70370974  0.95903989  0.08338722  1
  Se  Se21  1  0.29629026  0.04096011  0.58338722  1
  Se  Se22  1  0.29629026  0.04096011  0.91661278  1
  Se  Se23  1  0.70370974  0.95903989  0.41661278  1
  Se  Se24  1  0.00516082  0.71109302  0.08487220  1
  Se  Se25  1  0.99483918  0.28890698  0.58487220  1
  Se  Se26  1  0.99483918  0.28890698  0.91512780  1
  Se  Se27  1  0.00516082  0.71109302  0.41512780  1
  Se  Se28  1  0.68414989  0.19955433  0.75000000  1
  Se  Se29  1  0.31585011  0.80044567  0.25000000  1
  Se  Se30  1  0.26548434  0.73331854  0.75000000  1
  Se  Se31  1  0.73451566  0.26668146  0.25000000  1
  Se  Se32  1  0.96414205  0.95566527  0.75000000  1
  Se  Se33  1  0.03585795  0.04433473  0.25000000  1
  Se  Se34  1  0.32524392  0.37259647  0.75000000  1
  Se  Se35  1  0.67475608  0.62740353  0.25000000  1
