# generated using pymatgen
data_Rb3Nb2Br9
_symmetry_space_group_name_H-M   'P 1'
_cell_length_a   7.86767761
_cell_length_b   7.86767761
_cell_length_c   18.27810696
_cell_angle_alpha   90.00000000
_cell_angle_beta   90.00000000
_cell_angle_gamma   119.99999996
_symmetry_Int_Tables_number   1
_chemical_formula_structural   Rb3Nb2Br9
_chemical_formula_sum   'Rb6 Nb4 Br18'
_cell_volume   979.83953288
_cell_formula_units_Z   2
loop_
 _symmetry_equiv_pos_site_id
 _symmetry_equiv_pos_as_xyz
  1  'x, y, z'
loop_
 _atom_site_type_symbol
 _atom_site_label
 _atom_site_symmetry_multiplicity
 _atom_site_fract_x
 _atom_site_fract_y
 _atom_site_fract_z
 _atom_site_occupancy
  Br  Br0  1  0.82531259  0.17468741  0.40598321  1
  Br  Br1  1  0.82531259  0.65062517  0.40598321  1
  Br  Br2  1  0.34937483  0.17468741  0.40598321  1
  Br  Br3  1  0.65062517  0.82531259  0.90598321  1
  Br  Br4  1  0.17468741  0.34937483  0.59401679  1
  Br  Br5  1  0.17468741  0.82531259  0.90598321  1
  Br  Br6  1  0.17468741  0.34937483  0.90598321  1
  Br  Br7  1  0.82531259  0.17468741  0.09401679  1
  Br  Br8  1  0.34937483  0.17468741  0.09401679  1
  Br  Br9  1  0.65062517  0.82531259  0.59401679  1
  Br  Br10  1  0.49562759  0.99125518  0.25000000  1
  Br  Br11  1  0.50437241  0.49562759  0.75000000  1
  Br  Br12  1  0.99125518  0.49562759  0.75000000  1
  Br  Br13  1  0.00874482  0.50437241  0.25000000  1
  Br  Br14  1  0.49562759  0.50437241  0.25000000  1
  Br  Br15  1  0.50437241  0.00874482  0.75000000  1
  Br  Br16  1  0.82531259  0.65062517  0.09401679  1
  Br  Br17  1  0.17468741  0.82531259  0.59401679  1
  Rb  Rb18  1  0.00000000  0.00000000  0.25000000  1
  Rb  Rb19  1  0.00000000  0.00000000  0.75000000  1
  Rb  Rb20  1  0.33333333  0.66666667  0.06711986  1
  Rb  Rb21  1  0.66666667  0.33333333  0.56711986  1
  Rb  Rb22  1  0.33333333  0.66666667  0.43288014  1
  Rb  Rb23  1  0.66666667  0.33333333  0.93288014  1
  Nb  Nb24  1  0.33333333  0.66666667  0.82444383  1
  Nb  Nb25  1  0.66666667  0.33333333  0.32444383  1
  Nb  Nb26  1  0.66666667  0.33333333  0.17555617  1
  Nb  Nb27  1  0.33333333  0.66666667  0.67555617  1
