# generated using pymatgen
data_Li3V2(O2F)2
_symmetry_space_group_name_H-M   'P 1'
_cell_length_a   6.03219999
_cell_length_b   6.05306239
_cell_length_c   15.07458038
_cell_angle_alpha   94.94653407
_cell_angle_beta   80.25103267
_cell_angle_gamma   121.15275872
_symmetry_Int_Tables_number   1
_chemical_formula_structural   Li3V2(O2F)2
_chemical_formula_sum   'Li12 V8 O16 F8'
_cell_volume   464.24365461
_cell_formula_units_Z   4
loop_
 _symmetry_equiv_pos_site_id
 _symmetry_equiv_pos_as_xyz
  1  'x, y, z'
loop_
 _atom_site_type_symbol
 _atom_site_label
 _atom_site_symmetry_multiplicity
 _atom_site_fract_x
 _atom_site_fract_y
 _atom_site_fract_z
 _atom_site_occupancy
  Li  Li0  1  0.09486392  0.87902849  0.17044074  1
  Li  Li1  1  0.09696324  0.29992701  0.16818065  1
  Li  Li2  1  0.18865398  0.66659503  0.30702710  1
  Li  Li3  1  0.59863341  0.83846851  0.15903398  1
  Li  Li4  1  0.33699596  0.83653432  0.66378863  1
  Li  Li5  1  0.49273186  0.49405421  0.03896930  1
  Li  Li6  1  0.32298247  0.32940057  0.66913649  1
  Li  Li7  1  0.49238321  0.02113591  0.03607399  1
  Li  Li8  1  0.66838977  0.64076823  0.28999186  1
  Li  Li9  1  0.83389392  0.84363777  0.66731312  1
  Li  Li10  1  0.96336071  0.49563685  0.04554305  1
  Li  Li11  1  0.66971627  0.16613606  0.28845471  1
  V  V12  1  0.24893862  0.49991085  0.50266782  1
  V  V13  1  0.24843289  0.00442568  0.49329871  1
  V  V14  1  0.42678613  0.67647081  0.83661810  1
  V  V15  1  0.74458889  0.49507669  0.50940887  1
  V  V16  1  0.42158719  0.16613757  0.83021889  1
  V  V17  1  0.75093840  0.00706893  0.49668126  1
  V  V18  1  0.91914263  0.66532307  0.83160405  1
  V  V19  1  0.92608340  0.17713622  0.83425275  1
  O  O20  1  0.06325006  0.68901820  0.57239912  1
  O  O21  1  0.22893019  0.83364316  0.89655220  1
  O  O22  1  0.44277515  0.83347437  0.43116384  1
  O  O23  1  0.14061412  0.50589367  0.76007427  1
  O  O24  1  0.05013365  0.15419370  0.57153806  1
  O  O25  1  0.44481526  0.31992480  0.43551543  1
  O  O26  1  0.20904941  0.33016018  0.89750481  1
  O  O27  1  0.10996942  0.00201620  0.75611641  1
  O  O28  1  0.54901348  0.68022892  0.57763502  1
  O  O29  1  0.70684149  0.83603386  0.89975646  1
  O  O30  1  0.92968086  0.82521988  0.43694664  1
  O  O31  1  0.61031493  0.50589991  0.76041232  1
  O  O32  1  0.53329902  0.14800992  0.57314667  1
  O  O33  1  0.93389614  0.31479034  0.43663616  1
  O  O34  1  0.73132021  0.33252638  0.89912116  1
  O  O35  1  0.62731900  0.99665120  0.76077530  1
  F  F36  1  0.30487451  0.66917593  0.07698186  1
  F  F37  1  0.36541322  0.51729802  0.24411082  1
  F  F38  1  0.29124135  0.16570922  0.08387468  1
  F  F39  1  0.36571474  0.96832092  0.24413204  1
  F  F40  1  0.79773837  0.67423784  0.08811706  1
  F  F41  1  0.88324991  0.50649308  0.25822938  1
  F  F42  1  0.79607437  0.16681103  0.08881141  1
  F  F43  1  0.85506926  0.98806352  0.24507682  1
