# generated using pymatgen
data_AlTeI7
_symmetry_space_group_name_H-M   'P 1'
_cell_length_a   7.48030430
_cell_length_b   7.75885987
_cell_length_c   16.86105824
_cell_angle_alpha   104.62013994
_cell_angle_beta   90.00000000
_cell_angle_gamma   90.00000000
_symmetry_Int_Tables_number   1
_chemical_formula_structural   AlTeI7
_chemical_formula_sum   'Al2 Te2 I14'
_cell_volume   946.90643026
_cell_formula_units_Z   2
loop_
 _symmetry_equiv_pos_site_id
 _symmetry_equiv_pos_as_xyz
  1  'x, y, z'
loop_
 _atom_site_type_symbol
 _atom_site_label
 _atom_site_symmetry_multiplicity
 _atom_site_fract_x
 _atom_site_fract_y
 _atom_site_fract_z
 _atom_site_occupancy
  Al  Al0  1  0.99556449  0.28826778  0.65435719  1
  Al  Al1  1  0.00443551  0.28826778  0.15435719  1
  Te  Te2  1  0.59767792  0.00175387  0.50169364  1
  Te  Te3  1  0.40232208  0.00175387  0.00169364  1
  I  I4  1  0.38436832  0.10818895  0.38868815  1
  I  I5  1  0.39333207  0.72831854  0.53290654  1
  I  I6  1  0.16949684  0.78450101  0.89032469  1
  I  I7  1  0.83050316  0.78450101  0.39032469  1
  I  I8  1  0.11981124  0.97452884  0.15478200  1
  I  I9  1  0.60666793  0.72831854  0.03290654  1
  I  I10  1  0.12601717  0.35277845  0.02112174  1
  I  I11  1  0.87398283  0.35277845  0.52112174  1
  I  I12  1  0.66477019  0.31379152  0.16184780  1
  I  I13  1  0.33522981  0.31379152  0.66184780  1
  I  I14  1  0.14304896  0.50997106  0.27879825  1
  I  I15  1  0.85695104  0.50997106  0.77879825  1
  I  I16  1  0.61563168  0.10818895  0.88868815  1
  I  I17  1  0.88018876  0.97452884  0.65478200  1
