# generated using pymatgen
data_AlSeBr7
_symmetry_space_group_name_H-M   'P 1'
_cell_length_a   6.82140094
_cell_length_b   7.12416582
_cell_length_c   15.29868462
_cell_angle_alpha   105.22079803
_cell_angle_beta   90.00000000
_cell_angle_gamma   90.00000000
_symmetry_Int_Tables_number   1
_chemical_formula_structural   AlSeBr7
_chemical_formula_sum   'Al2 Se2 Br14'
_cell_volume   717.38709888
_cell_formula_units_Z   2
loop_
 _symmetry_equiv_pos_site_id
 _symmetry_equiv_pos_as_xyz
  1  'x, y, z'
loop_
 _atom_site_type_symbol
 _atom_site_label
 _atom_site_symmetry_multiplicity
 _atom_site_fract_x
 _atom_site_fract_y
 _atom_site_fract_z
 _atom_site_occupancy
  Al  Al0  1  0.99827961  0.30131176  0.66284746  1
  Al  Al1  1  0.00172039  0.30131176  0.16284746  1
  Se  Se2  1  0.59736284  0.00285853  0.50356836  1
  Se  Se3  1  0.40263716  0.00285853  0.00356836  1
  Br  Br4  1  0.39921320  0.10545715  0.39766530  1
  Br  Br5  1  0.39809669  0.75716258  0.53621326  1
  Br  Br6  1  0.17961006  0.79791086  0.90080024  1
  Br  Br7  1  0.82038994  0.79791086  0.40080024  1
  Br  Br8  1  0.12117438  0.99262957  0.16303023  1
  Br  Br9  1  0.60190331  0.75716258  0.03621326  1
  Br  Br10  1  0.12890453  0.35989663  0.02992373  1
  Br  Br11  1  0.87109547  0.35989663  0.52992373  1
  Br  Br12  1  0.66323568  0.32295179  0.16601838  1
  Br  Br13  1  0.33676432  0.32295179  0.66601838  1
  Br  Br14  1  0.12966993  0.52452112  0.28983304  1
  Br  Br15  1  0.87033007  0.52452112  0.78983304  1
  Br  Br16  1  0.60078680  0.10545715  0.89766530  1
  Br  Br17  1  0.87882562  0.99262957  0.66303023  1
