# generated using pymatgen
data_Ta3Br7
_symmetry_space_group_name_H-M   'P 1'
_cell_length_a   10.32343610
_cell_length_b   10.32343581
_cell_length_c   11.94127148
_cell_angle_alpha   90.00000000
_cell_angle_beta   90.00000000
_cell_angle_gamma   87.02613169
_symmetry_Int_Tables_number   1
_chemical_formula_structural   Ta3Br7
_chemical_formula_sum   'Ta12 Br28'
_cell_volume   1270.90722728
_cell_formula_units_Z   4
loop_
 _symmetry_equiv_pos_site_id
 _symmetry_equiv_pos_as_xyz
  1  'x, y, z'
loop_
 _atom_site_type_symbol
 _atom_site_label
 _atom_site_symmetry_multiplicity
 _atom_site_fract_x
 _atom_site_fract_y
 _atom_site_fract_z
 _atom_site_occupancy
  Ta  Ta0  1  0.38903610  0.38903610  0.92068899  1
  Ta  Ta1  1  0.11096390  0.11096390  0.42068899  1
  Ta  Ta2  1  0.88903610  0.88903610  0.57931101  1
  Ta  Ta3  1  0.61096390  0.61096390  0.07931101  1
  Ta  Ta4  1  0.34529217  0.55611925  0.10866962  1
  Ta  Ta5  1  0.15470783  0.94388075  0.60866962  1
  Ta  Ta6  1  0.05611925  0.84529217  0.39133038  1
  Ta  Ta7  1  0.44388075  0.65470783  0.89133038  1
  Ta  Ta8  1  0.65470783  0.44388075  0.89133038  1
  Ta  Ta9  1  0.84529217  0.05611925  0.39133038  1
  Ta  Ta10  1  0.94388075  0.15470783  0.60866962  1
  Ta  Ta11  1  0.55611925  0.34529217  0.10866962  1
  Br  Br12  1  0.12701984  0.62701984  0.25000000  1
  Br  Br13  1  0.37298016  0.87298016  0.75000000  1
  Br  Br14  1  0.87298016  0.37298016  0.75000000  1
  Br  Br15  1  0.62701984  0.12701984  0.25000000  1
  Br  Br16  1  0.16443693  0.41430637  0.02067168  1
  Br  Br17  1  0.33556307  0.08569363  0.52067168  1
  Br  Br18  1  0.91430637  0.66443693  0.47932832  1
  Br  Br19  1  0.58569363  0.83556307  0.97932832  1
  Br  Br20  1  0.83556307  0.58569363  0.97932832  1
  Br  Br21  1  0.66443693  0.91430637  0.47932832  1
  Br  Br22  1  0.08569363  0.33556307  0.52067168  1
  Br  Br23  1  0.41430637  0.16443693  0.02067168  1
  Br  Br24  1  0.37914910  0.37914910  0.26520309  1
  Br  Br25  1  0.12085090  0.12085090  0.76520309  1
  Br  Br26  1  0.87914910  0.87914910  0.23479691  1
  Br  Br27  1  0.62085090  0.62085090  0.73479691  1
  Br  Br28  1  0.75581976  0.24418024  0.00000000  1
  Br  Br29  1  0.74418024  0.25581976  0.50000000  1
  Br  Br30  1  0.24418024  0.75581976  0.00000000  1
  Br  Br31  1  0.25581976  0.74418024  0.50000000  1
  Br  Br32  1  0.71557273  0.46841086  0.23853150  1
  Br  Br33  1  0.78442727  0.03158914  0.73853150  1
  Br  Br34  1  0.96841086  0.21557273  0.26146850  1
  Br  Br35  1  0.53158914  0.28442727  0.76146850  1
  Br  Br36  1  0.28442727  0.53158914  0.76146850  1
  Br  Br37  1  0.21557273  0.96841086  0.26146850  1
  Br  Br38  1  0.03158914  0.78442727  0.73853150  1
  Br  Br39  1  0.46841086  0.71557273  0.23853150  1
