# generated using pymatgen
data_Na3ScBr6
_symmetry_space_group_name_H-M   'P 1'
_cell_length_a   7.40389383
_cell_length_b   7.40389382
_cell_length_c   13.24503399
_cell_angle_alpha   90.00000000
_cell_angle_beta   90.00000000
_cell_angle_gamma   119.99999998
_symmetry_Int_Tables_number   1
_chemical_formula_structural   Na3ScBr6
_chemical_formula_sum   'Na6 Sc2 Br12'
_cell_volume   628.78775184
_cell_formula_units_Z   2
loop_
 _symmetry_equiv_pos_site_id
 _symmetry_equiv_pos_as_xyz
  1  'x, y, z'
loop_
 _atom_site_type_symbol
 _atom_site_label
 _atom_site_symmetry_multiplicity
 _atom_site_fract_x
 _atom_site_fract_y
 _atom_site_fract_z
 _atom_site_occupancy
  Na  Na0  1  0.66666667  0.33333333  0.46158267  1
  Na  Na1  1  0.66666667  0.33333333  0.03841733  1
  Na  Na2  1  0.33333333  0.66666667  0.53841733  1
  Na  Na3  1  0.33333333  0.66666667  0.96158267  1
  Na  Na4  1  0.00000000  0.00000000  0.75000000  1
  Na  Na5  1  0.00000000  0.00000000  0.25000000  1
  Sc  Sc6  1  0.66666667  0.33333333  0.75000000  1
  Sc  Sc7  1  0.33333333  0.66666667  0.25000000  1
  Br  Br8  1  0.36807731  0.31938986  0.86946077  1
  Br  Br9  1  0.95131255  0.31938986  0.63053923  1
  Br  Br10  1  0.36807731  0.04868745  0.63053923  1
  Br  Br11  1  0.68061014  0.63192269  0.63053923  1
  Br  Br12  1  0.95131255  0.63192269  0.86946077  1
  Br  Br13  1  0.68061014  0.04868745  0.86946077  1
  Br  Br14  1  0.31938986  0.36807731  0.36946077  1
  Br  Br15  1  0.63192269  0.95131255  0.36946077  1
  Br  Br16  1  0.04868745  0.68061014  0.36946077  1
  Br  Br17  1  0.63192269  0.68061014  0.13053923  1
  Br  Br18  1  0.04868745  0.36807731  0.13053923  1
  Br  Br19  1  0.31938986  0.95131255  0.13053923  1
