# generated using pymatgen
data_Na2B2S5
_symmetry_space_group_name_H-M   'P 1'
_cell_length_a   7.63228058
_cell_length_b   8.35157028
_cell_length_c   12.66051259
_cell_angle_alpha   90.00000000
_cell_angle_beta   90.00000000
_cell_angle_gamma   90.00000000
_symmetry_Int_Tables_number   1
_chemical_formula_structural   Na2B2S5
_chemical_formula_sum   'Na8 B8 S20'
_cell_volume   807.00041345
_cell_formula_units_Z   4
loop_
 _symmetry_equiv_pos_site_id
 _symmetry_equiv_pos_as_xyz
  1  'x, y, z'
loop_
 _atom_site_type_symbol
 _atom_site_label
 _atom_site_symmetry_multiplicity
 _atom_site_fract_x
 _atom_site_fract_y
 _atom_site_fract_z
 _atom_site_occupancy
  B  B0  1  0.25000000  0.59450610  0.12121571  1
  B  B1  1  0.75000000  0.40549390  0.87878429  1
  B  B2  1  0.75000000  0.09450610  0.37878429  1
  B  B3  1  0.25000000  0.90549390  0.62121571  1
  B  B4  1  0.25000000  0.29231271  0.01402930  1
  B  B5  1  0.75000000  0.70768729  0.98597070  1
  B  B6  1  0.75000000  0.79231271  0.48597070  1
  B  B7  1  0.25000000  0.20768729  0.51402930  1
  Na  Na8  1  0.49664948  0.00327359  0.16349085  1
  Na  Na9  1  0.99664948  0.99672641  0.83650915  1
  Na  Na10  1  0.50335052  0.50327359  0.33650915  1
  Na  Na11  1  0.00335052  0.49672641  0.66349085  1
  Na  Na12  1  0.50335052  0.99672641  0.83650915  1
  Na  Na13  1  0.00335052  0.00327359  0.16349085  1
  Na  Na14  1  0.49664948  0.49672641  0.66349085  1
  Na  Na15  1  0.99664948  0.50327359  0.33650915  1
  S  S16  1  0.25000000  0.41837100  0.49308119  1
  S  S17  1  0.75000000  0.58162900  0.50691881  1
  S  S18  1  0.75000000  0.91837100  0.00691881  1
  S  S19  1  0.25000000  0.08162900  0.99308119  1
  S  S20  1  0.25000000  0.73608234  0.22626673  1
  S  S21  1  0.75000000  0.26391766  0.77373327  1
  S  S22  1  0.75000000  0.23608234  0.27373327  1
  S  S23  1  0.25000000  0.76391766  0.72626673  1
  S  S24  1  0.25000000  0.37829898  0.14707951  1
  S  S25  1  0.75000000  0.62170102  0.85292049  1
  S  S26  1  0.75000000  0.87829898  0.35292049  1
  S  S27  1  0.25000000  0.12170102  0.64707951  1
  S  S28  1  0.25000000  0.43444239  0.90535817  1
  S  S29  1  0.75000000  0.56555761  0.09464183  1
  S  S30  1  0.75000000  0.93444239  0.59464183  1
  S  S31  1  0.25000000  0.06555761  0.40535817  1
  S  S32  1  0.25000000  0.65492101  0.98401113  1
  S  S33  1  0.75000000  0.34507899  0.01598887  1
  S  S34  1  0.75000000  0.15492101  0.51598887  1
  S  S35  1  0.25000000  0.84507899  0.48401113  1
