# generated using pymatgen
data_Li2Mn2F7
_symmetry_space_group_name_H-M   'P 1'
_cell_length_a   5.51737310
_cell_length_b   5.51737310
_cell_length_c   10.69586103
_cell_angle_alpha   81.22409632
_cell_angle_beta   98.77590368
_cell_angle_gamma   75.11442595
_symmetry_Int_Tables_number   1
_chemical_formula_structural   Li2Mn2F7
_chemical_formula_sum   'Li4 Mn4 F14'
_cell_volume   304.65391866
_cell_formula_units_Z   2
loop_
 _symmetry_equiv_pos_site_id
 _symmetry_equiv_pos_as_xyz
  1  'x, y, z'
loop_
 _atom_site_type_symbol
 _atom_site_label
 _atom_site_symmetry_multiplicity
 _atom_site_fract_x
 _atom_site_fract_y
 _atom_site_fract_z
 _atom_site_occupancy
  Li  Li0  1  0.36592579  0.27218094  0.98985207  1
  Li  Li1  1  0.27218094  0.36592579  0.51014793  1
  Li  Li2  1  0.72781906  0.63407421  0.48985207  1
  Li  Li3  1  0.63407421  0.72781906  0.01014793  1
  Mn  Mn4  1  0.26376237  0.76292832  0.69052758  1
  Mn  Mn5  1  0.23707168  0.73623763  0.19052758  1
  Mn  Mn6  1  0.76292832  0.26376237  0.80947242  1
  Mn  Mn7  1  0.73623763  0.23707168  0.30947242  1
  F  F8  1  0.37598891  0.03946565  0.61173837  1
  F  F9  1  0.04303969  0.57864449  0.61047806  1
  F  F10  1  0.50567809  0.54667580  0.86979699  1
  F  F11  1  0.96053435  0.62401109  0.11173837  1
  F  F12  1  0.99053814  0.99053814  0.75000000  1
  F  F13  1  0.42135551  0.95696031  0.11047806  1
  F  F14  1  0.45332420  0.49432191  0.36979699  1
  F  F15  1  0.54667580  0.50567809  0.63020301  1
  F  F16  1  0.57864449  0.04303969  0.88952194  1
  F  F17  1  0.00946186  0.00946186  0.25000000  1
  F  F18  1  0.03946565  0.37598891  0.88826163  1
  F  F19  1  0.49432191  0.45332420  0.13020301  1
  F  F20  1  0.95696031  0.42135551  0.38952194  1
  F  F21  1  0.62401109  0.96053435  0.38826163  1
