# generated using pymatgen
data_Sr9Cd4Bi9
_symmetry_space_group_name_H-M   'P 1'
_cell_length_a   4.96999826
_cell_length_b   13.42614755
_cell_length_c   23.69169309
_cell_angle_alpha   90.00000000
_cell_angle_beta   90.00000000
_cell_angle_gamma   90.00000000
_symmetry_Int_Tables_number   1
_chemical_formula_structural   Sr9Cd4Bi9
_chemical_formula_sum   'Sr18 Cd8 Bi18'
_cell_volume   1580.89763719
_cell_formula_units_Z   2
loop_
 _symmetry_equiv_pos_site_id
 _symmetry_equiv_pos_as_xyz
  1  'x, y, z'
loop_
 _atom_site_type_symbol
 _atom_site_label
 _atom_site_symmetry_multiplicity
 _atom_site_fract_x
 _atom_site_fract_y
 _atom_site_fract_z
 _atom_site_occupancy
  Sr  Sr0  1  0.00000000  0.36751242  0.63559791  1
  Sr  Sr1  1  0.00000000  0.56527950  0.91095205  1
  Sr  Sr2  1  0.00000000  0.63248758  0.36440209  1
  Sr  Sr3  1  0.00000000  0.43472050  0.08904795  1
  Sr  Sr4  1  0.00000000  0.13248758  0.13559791  1
  Sr  Sr5  1  0.00000000  0.86751242  0.86440209  1
  Sr  Sr6  1  0.50000000  0.50000000  0.50000000  1
  Sr  Sr7  1  0.50000000  0.00000000  0.00000000  1
  Sr  Sr8  1  0.50000000  0.70935330  0.10246443  1
  Sr  Sr9  1  0.50000000  0.29064670  0.89753557  1
  Sr  Sr10  1  0.50000000  0.20935330  0.39753557  1
  Sr  Sr11  1  0.50000000  0.79064670  0.60246443  1
  Sr  Sr12  1  0.00000000  0.87539581  0.23546440  1
  Sr  Sr13  1  0.00000000  0.12460419  0.76453560  1
  Sr  Sr14  1  0.00000000  0.37539581  0.26453560  1
  Sr  Sr15  1  0.00000000  0.62460419  0.73546440  1
  Sr  Sr16  1  0.00000000  0.93472050  0.41095205  1
  Sr  Sr17  1  0.00000000  0.06527950  0.58904795  1
  Cd  Cd18  1  0.50000000  0.72928807  0.95418219  1
  Cd  Cd19  1  0.50000000  0.27071193  0.04581781  1
  Cd  Cd20  1  0.50000000  0.22928807  0.54581781  1
  Cd  Cd21  1  0.50000000  0.77071193  0.45418219  1
  Cd  Cd22  1  0.50000000  0.61363151  0.26114533  1
  Cd  Cd23  1  0.50000000  0.11363151  0.23885467  1
  Cd  Cd24  1  0.50000000  0.38636849  0.73885467  1
  Cd  Cd25  1  0.50000000  0.88636849  0.76114533  1
  Bi  Bi26  1  0.50000000  0.81161189  0.33084470  1
  Bi  Bi27  1  0.50000000  0.18838811  0.66915530  1
  Bi  Bi28  1  0.50000000  0.31161189  0.16915530  1
  Bi  Bi29  1  0.50000000  0.68838811  0.83084470  1
  Bi  Bi30  1  0.50000000  0.95659301  0.14577633  1
  Bi  Bi31  1  0.50000000  0.04340699  0.85422367  1
  Bi  Bi32  1  0.50000000  0.45659301  0.35422367  1
  Bi  Bi33  1  0.50000000  0.54340699  0.64577633  1
  Bi  Bi34  1  0.00000000  0.61798501  0.19205221  1
  Bi  Bi35  1  0.00000000  0.38201499  0.80794779  1
  Bi  Bi36  1  0.00000000  0.11798501  0.30794779  1
  Bi  Bi37  1  0.00000000  0.88201499  0.69205221  1
  Bi  Bi38  1  0.00000000  0.81145881  0.01036377  1
  Bi  Bi39  1  0.00000000  0.18854119  0.98963623  1
  Bi  Bi40  1  0.00000000  0.31145881  0.48963623  1
  Bi  Bi41  1  0.00000000  0.68854119  0.51036377  1
  Bi  Bi42  1  0.50000000  0.00000000  0.50000000  1
  Bi  Bi43  1  0.50000000  0.50000000  0.00000000  1
