# generated using pymatgen
data_Ca9Cd4Bi9
_symmetry_space_group_name_H-M   'P 1'
_cell_length_a   4.80060304
_cell_length_b   12.87698289
_cell_length_c   22.76566106
_cell_angle_alpha   90.00000000
_cell_angle_beta   90.00000000
_cell_angle_gamma   90.00000000
_symmetry_Int_Tables_number   1
_chemical_formula_structural   Ca9Cd4Bi9
_chemical_formula_sum   'Ca18 Cd8 Bi18'
_cell_volume   1407.31131716
_cell_formula_units_Z   2
loop_
 _symmetry_equiv_pos_site_id
 _symmetry_equiv_pos_as_xyz
  1  'x, y, z'
loop_
 _atom_site_type_symbol
 _atom_site_label
 _atom_site_symmetry_multiplicity
 _atom_site_fract_x
 _atom_site_fract_y
 _atom_site_fract_z
 _atom_site_occupancy
  Ca  Ca0  1  0.00000000  0.36704276  0.63584405  1
  Ca  Ca1  1  0.00000000  0.56713896  0.91139841  1
  Ca  Ca2  1  0.00000000  0.63295724  0.36415595  1
  Ca  Ca3  1  0.00000000  0.43286104  0.08860159  1
  Ca  Ca4  1  0.00000000  0.13295724  0.13584405  1
  Ca  Ca5  1  0.00000000  0.86704276  0.86415595  1
  Ca  Ca6  1  0.50000000  0.50000000  0.50000000  1
  Ca  Ca7  1  0.50000000  0.00000000  0.00000000  1
  Ca  Ca8  1  0.50000000  0.70781210  0.10019256  1
  Ca  Ca9  1  0.50000000  0.29218790  0.89980744  1
  Ca  Ca10  1  0.50000000  0.20781210  0.39980744  1
  Ca  Ca11  1  0.50000000  0.79218790  0.60019256  1
  Ca  Ca12  1  0.00000000  0.87554255  0.23316627  1
  Ca  Ca13  1  0.00000000  0.12445745  0.76683373  1
  Ca  Ca14  1  0.00000000  0.37554255  0.26683373  1
  Ca  Ca15  1  0.00000000  0.62445745  0.73316627  1
  Ca  Ca16  1  0.00000000  0.93286104  0.41139841  1
  Ca  Ca17  1  0.00000000  0.06713896  0.58860159  1
  Cd  Cd18  1  0.50000000  0.73287639  0.95279523  1
  Cd  Cd19  1  0.50000000  0.26712361  0.04720477  1
  Cd  Cd20  1  0.50000000  0.23287639  0.54720477  1
  Cd  Cd21  1  0.50000000  0.76712361  0.45279523  1
  Cd  Cd22  1  0.50000000  0.61321456  0.25982751  1
  Cd  Cd23  1  0.50000000  0.11321456  0.24017249  1
  Cd  Cd24  1  0.50000000  0.38678544  0.74017249  1
  Cd  Cd25  1  0.50000000  0.88678544  0.75982751  1
  Bi  Bi26  1  0.50000000  0.81805958  0.32751925  1
  Bi  Bi27  1  0.50000000  0.18194042  0.67248075  1
  Bi  Bi28  1  0.50000000  0.31805958  0.17248075  1
  Bi  Bi29  1  0.50000000  0.68194042  0.82751925  1
  Bi  Bi30  1  0.50000000  0.95476909  0.14337307  1
  Bi  Bi31  1  0.50000000  0.04523091  0.85662693  1
  Bi  Bi32  1  0.50000000  0.45476909  0.35662693  1
  Bi  Bi33  1  0.50000000  0.54523091  0.64337307  1
  Bi  Bi34  1  0.00000000  0.61903724  0.18593916  1
  Bi  Bi35  1  0.00000000  0.38096276  0.81406084  1
  Bi  Bi36  1  0.00000000  0.11903724  0.31406084  1
  Bi  Bi37  1  0.00000000  0.88096276  0.68593916  1
  Bi  Bi38  1  0.00000000  0.81877342  0.01319421  1
  Bi  Bi39  1  0.00000000  0.18122658  0.98680579  1
  Bi  Bi40  1  0.00000000  0.31877342  0.48680579  1
  Bi  Bi41  1  0.00000000  0.68122658  0.51319421  1
  Bi  Bi42  1  0.50000000  0.00000000  0.50000000  1
  Bi  Bi43  1  0.50000000  0.50000000  0.00000000  1
