# generated using pymatgen
data_V4P2C
_symmetry_space_group_name_H-M   'P 1'
_cell_length_a   9.55038571
_cell_length_b   9.55038571
_cell_length_c   3.15427931
_cell_angle_alpha   90.00000000
_cell_angle_beta   90.00000000
_cell_angle_gamma   120.00000003
_symmetry_Int_Tables_number   1
_chemical_formula_structural   V4P2C
_chemical_formula_sum   'V12 P6 C3'
_cell_volume   249.15671849
_cell_formula_units_Z   3
loop_
 _symmetry_equiv_pos_site_id
 _symmetry_equiv_pos_as_xyz
  1  'x, y, z'
loop_
 _atom_site_type_symbol
 _atom_site_label
 _atom_site_symmetry_multiplicity
 _atom_site_fract_x
 _atom_site_fract_y
 _atom_site_fract_z
 _atom_site_occupancy
  C  C0  1  0.00000000  0.66920005  0.50000000  1
  C  C1  1  0.33079995  0.33079995  0.50000000  1
  C  C2  1  0.66920005  0.00000000  0.50000000  1
  P  P3  1  0.00000000  0.00000000  0.50000000  1
  P  P4  1  0.66666667  0.33333333  0.00000000  1
  P  P5  1  0.33333333  0.66666667  0.00000000  1
  P  P6  1  0.00000000  0.28210887  0.00000000  1
  P  P7  1  0.71789113  0.71789113  0.00000000  1
  P  P8  1  0.28210887  0.00000000  0.00000000  1
  V  V9  1  0.81351266  0.00000000  0.00000000  1
  V  V10  1  0.18648734  0.18648734  0.00000000  1
  V  V11  1  0.00000000  0.81351266  0.00000000  1
  V  V12  1  0.00000000  0.53365274  0.00000000  1
  V  V13  1  0.46634726  0.46634726  0.00000000  1
  V  V14  1  0.53365274  0.00000000  0.00000000  1
  V  V15  1  0.45183506  0.20783832  0.50000000  1
  V  V16  1  0.79216168  0.24399674  0.50000000  1
  V  V17  1  0.75600326  0.54816494  0.50000000  1
  V  V18  1  0.54816494  0.75600326  0.50000000  1
  V  V19  1  0.24399674  0.79216168  0.50000000  1
  V  V20  1  0.20783832  0.45183506  0.50000000  1
