# generated using pymatgen
data_Co3(O2F)2
_symmetry_space_group_name_H-M   'P 1'
_cell_length_a   4.61060237
_cell_length_b   4.61060237
_cell_length_c   8.78224722
_cell_angle_alpha   90.50069672
_cell_angle_beta   89.49930328
_cell_angle_gamma   96.43257720
_symmetry_Int_Tables_number   1
_chemical_formula_structural   Co3(O2F)2
_chemical_formula_sum   'Co6 O8 F4'
_cell_volume   185.50190505
_cell_formula_units_Z   2
loop_
 _symmetry_equiv_pos_site_id
 _symmetry_equiv_pos_as_xyz
  1  'x, y, z'
loop_
 _atom_site_type_symbol
 _atom_site_label
 _atom_site_symmetry_multiplicity
 _atom_site_fract_x
 _atom_site_fract_y
 _atom_site_fract_z
 _atom_site_occupancy
  Co  Co0  1  0.99875478  0.00124522  0.00761017  1
  Co  Co1  1  0.00000000  0.00000000  0.33333300  1
  Co  Co2  1  0.00124522  0.99875478  0.65905683  1
  Co  Co3  1  0.53597590  0.46402410  0.16748652  1
  Co  Co4  1  0.50000000  0.50000000  0.83333300  1
  Co  Co5  1  0.46402410  0.53597590  0.49918048  1
  O  O6  1  0.17902936  0.82097064  0.49345189  1
  O  O7  1  0.30924237  0.30924237  0.33333300  1
  O  O8  1  0.31391554  0.29760821  0.00311630  1
  O  O9  1  0.29760821  0.31391554  0.66354970  1
  O  O10  1  0.68608446  0.70239179  0.66354970  1
  O  O11  1  0.70239179  0.68608446  0.00311630  1
  O  O12  1  0.69075763  0.69075763  0.33333300  1
  O  O13  1  0.82097064  0.17902936  0.17321511  1
  F  F14  1  0.20753307  0.79246693  0.17172514  1
  F  F15  1  0.18916218  0.81083782  0.84043444  1
  F  F16  1  0.81083782  0.18916218  0.82623256  1
  F  F17  1  0.79246693  0.20753307  0.49494186  1
