# generated using pymatgen
data_Bi4Rh
_symmetry_space_group_name_H-M   'P 1'
_cell_length_a   13.15719719
_cell_length_b   13.15719718
_cell_length_c   13.15719718
_cell_angle_alpha   109.47122062
_cell_angle_beta   109.47122061
_cell_angle_gamma   109.47122065
_symmetry_Int_Tables_number   1
_chemical_formula_structural   Bi4Rh
_chemical_formula_sum   'Bi48 Rh12'
_cell_volume   1753.34855290
_cell_formula_units_Z   12
loop_
 _symmetry_equiv_pos_site_id
 _symmetry_equiv_pos_as_xyz
  1  'x, y, z'
loop_
 _atom_site_type_symbol
 _atom_site_label
 _atom_site_symmetry_multiplicity
 _atom_site_fract_x
 _atom_site_fract_y
 _atom_site_fract_z
 _atom_site_occupancy
  Rh  Rh0  1  0.25000000  0.87500000  0.62500000  1
  Rh  Rh1  1  0.87500000  0.62500000  0.25000000  1
  Rh  Rh2  1  0.62500000  0.87500000  0.75000000  1
  Rh  Rh3  1  0.87500000  0.75000000  0.62500000  1
  Rh  Rh4  1  0.62500000  0.25000000  0.87500000  1
  Rh  Rh5  1  0.75000000  0.62500000  0.87500000  1
  Rh  Rh6  1  0.75000000  0.12500000  0.37500000  1
  Rh  Rh7  1  0.12500000  0.37500000  0.75000000  1
  Rh  Rh8  1  0.37500000  0.12500000  0.25000000  1
  Rh  Rh9  1  0.12500000  0.25000000  0.37500000  1
  Rh  Rh10  1  0.37500000  0.75000000  0.12500000  1
  Rh  Rh11  1  0.25000000  0.37500000  0.12500000  1
  Bi  Bi12  1  0.58732734  0.91099097  0.37161958  1
  Bi  Bi13  1  0.46062861  0.58900903  0.17633637  1
  Bi  Bi14  1  0.17633637  0.46062861  0.58900903  1
  Bi  Bi15  1  0.21570776  0.12838042  0.03937139  1
  Bi  Bi16  1  0.32366363  0.91099097  0.03937139  1
  Bi  Bi17  1  0.28429224  0.32366363  0.91267266  1
  Bi  Bi18  1  0.03937139  0.32366363  0.91099097  1
  Bi  Bi19  1  0.91099097  0.37161958  0.58732734  1
  Bi  Bi20  1  0.91099097  0.03937139  0.32366363  1
  Bi  Bi21  1  0.37161958  0.28429224  0.46062861  1
  Bi  Bi22  1  0.58732734  0.17633637  0.21570776  1
  Bi  Bi23  1  0.58900903  0.91267266  0.12838042  1
  Bi  Bi24  1  0.41099097  0.82366363  0.53937139  1
  Bi  Bi25  1  0.82366363  0.78429224  0.41267266  1
  Bi  Bi26  1  0.87161958  0.41099097  0.08732734  1
  Bi  Bi27  1  0.08732734  0.87161958  0.41099097  1
  Bi  Bi28  1  0.53937139  0.62838042  0.71570776  1
  Bi  Bi29  1  0.71570776  0.53937139  0.62838042  1
  Bi  Bi30  1  0.78429224  0.41267266  0.82366363  1
  Bi  Bi31  1  0.87161958  0.96062861  0.78429224  1
  Bi  Bi32  1  0.08732734  0.71570776  0.67633637  1
  Bi  Bi33  1  0.62838042  0.41267266  0.08900903  1
  Bi  Bi34  1  0.96062861  0.78429224  0.87161958  1
  Bi  Bi35  1  0.67633637  0.08732734  0.71570776  1
  Bi  Bi36  1  0.41267266  0.08900903  0.62838042  1
  Bi  Bi37  1  0.53937139  0.41099097  0.82366363  1
  Bi  Bi38  1  0.82366363  0.53937139  0.41099097  1
  Bi  Bi39  1  0.78429224  0.87161958  0.96062861  1
  Bi  Bi40  1  0.67633637  0.08900903  0.96062861  1
  Bi  Bi41  1  0.71570776  0.67633637  0.08732734  1
  Bi  Bi42  1  0.96062861  0.67633637  0.08900903  1
  Bi  Bi43  1  0.08900903  0.62838042  0.41267266  1
  Bi  Bi44  1  0.08900903  0.96062861  0.67633637  1
  Bi  Bi45  1  0.62838042  0.71570776  0.53937139  1
  Bi  Bi46  1  0.41267266  0.82366363  0.78429224  1
  Bi  Bi47  1  0.41099097  0.08732734  0.87161958  1
  Bi  Bi48  1  0.32366363  0.91267266  0.28429224  1
  Bi  Bi49  1  0.03937139  0.21570776  0.12838042  1
  Bi  Bi50  1  0.37161958  0.58732734  0.91099097  1
  Bi  Bi51  1  0.91267266  0.28429224  0.32366363  1
  Bi  Bi52  1  0.12838042  0.03937139  0.21570776  1
  Bi  Bi53  1  0.21570776  0.58732734  0.17633637  1
  Bi  Bi54  1  0.28429224  0.46062861  0.37161958  1
  Bi  Bi55  1  0.46062861  0.37161958  0.28429224  1
  Bi  Bi56  1  0.91267266  0.12838042  0.58900903  1
  Bi  Bi57  1  0.12838042  0.58900903  0.91267266  1
  Bi  Bi58  1  0.17633637  0.21570776  0.58732734  1
  Bi  Bi59  1  0.58900903  0.17633637  0.46062861  1
