# generated using pymatgen
data_Bi2Pd5
_symmetry_space_group_name_H-M   'P 1'
_cell_length_a   5.91394187
_cell_length_b   6.87809846
_cell_length_c   7.78610082
_cell_angle_alpha   114.94995586
_cell_angle_beta   112.31978214
_cell_angle_gamma   89.99999996
_symmetry_Int_Tables_number   1
_chemical_formula_structural   Bi2Pd5
_chemical_formula_sum   'Bi4 Pd10'
_cell_volume   260.75148467
_cell_formula_units_Z   2
loop_
 _symmetry_equiv_pos_site_id
 _symmetry_equiv_pos_as_xyz
  1  'x, y, z'
loop_
 _atom_site_type_symbol
 _atom_site_label
 _atom_site_symmetry_multiplicity
 _atom_site_fract_x
 _atom_site_fract_y
 _atom_site_fract_z
 _atom_site_occupancy
  Pd  Pd0  1  0.52576862  0.23401863  0.54774965  1
  Pd  Pd1  1  0.97801896  0.76598137  0.45225035  1
  Pd  Pd2  1  0.47423138  0.76598137  0.45225035  1
  Pd  Pd3  1  0.02198104  0.23401863  0.54774965  1
  Pd  Pd4  1  0.74895475  0.50000000  0.00000000  1
  Pd  Pd5  1  0.25104525  0.50000000  0.00000000  1
  Pd  Pd6  1  0.09541641  0.91245761  0.19083282  1
  Pd  Pd7  1  0.90458359  0.08754239  0.80916718  1
  Pd  Pd8  1  0.36672428  0.63939194  0.73344856  1
  Pd  Pd9  1  0.63327572  0.36060806  0.26655144  1
  Bi  Bi10  1  0.59909503  0.90598777  0.19819007  1
  Bi  Bi11  1  0.40090497  0.09401223  0.80180993  1
  Bi  Bi12  1  0.86913339  0.64337983  0.73826678  1
  Bi  Bi13  1  0.13086661  0.35662017  0.26173322  1
