# generated using pymatgen
data_BiPd3
_symmetry_space_group_name_H-M   'P 1'
_cell_length_a   5.09222651
_cell_length_b   5.85540408
_cell_length_c   9.58311377
_cell_angle_alpha   90.00000000
_cell_angle_beta   90.00000000
_cell_angle_gamma   90.00000000
_symmetry_Int_Tables_number   1
_chemical_formula_structural   BiPd3
_chemical_formula_sum   'Bi4 Pd12'
_cell_volume   285.74012382
_cell_formula_units_Z   4
loop_
 _symmetry_equiv_pos_site_id
 _symmetry_equiv_pos_as_xyz
  1  'x, y, z'
loop_
 _atom_site_type_symbol
 _atom_site_label
 _atom_site_symmetry_multiplicity
 _atom_site_fract_x
 _atom_site_fract_y
 _atom_site_fract_z
 _atom_site_occupancy
  Pd  Pd0  1  0.66514132  0.25099097  0.25000000  1
  Pd  Pd1  1  0.66514132  0.74900903  0.25000000  1
  Pd  Pd2  1  0.33485868  0.25099097  0.75000000  1
  Pd  Pd3  1  0.33485868  0.74900903  0.75000000  1
  Pd  Pd4  1  0.50000000  0.50000000  0.00000000  1
  Pd  Pd5  1  0.50000000  0.50000000  0.50000000  1
  Pd  Pd6  1  0.84833392  0.00000000  0.75000000  1
  Pd  Pd7  1  0.15166608  0.00000000  0.25000000  1
  Pd  Pd8  1  0.00000000  0.74953280  0.00000000  1
  Pd  Pd9  1  0.00000000  0.25046720  0.50000000  1
  Pd  Pd10  1  0.00000000  0.25046720  0.00000000  1
  Pd  Pd11  1  0.00000000  0.74953280  0.50000000  1
  Bi  Bi12  1  0.15399831  0.50000000  0.25000000  1
  Bi  Bi13  1  0.84600169  0.50000000  0.75000000  1
  Bi  Bi14  1  0.50000000  0.00000000  0.50000000  1
  Bi  Bi15  1  0.50000000  0.00000000  0.00000000  1
