# generated using pymatgen
data_TmCd3
_symmetry_space_group_name_H-M   'P 1'
_cell_length_a   4.85820774
_cell_length_b   6.47373802
_cell_length_c   6.47373802
_cell_angle_alpha   112.42633303
_cell_angle_beta   90.00000000
_cell_angle_gamma   90.00000000
_symmetry_Int_Tables_number   1
_chemical_formula_structural   TmCd3
_chemical_formula_sum   'Tm2 Cd6'
_cell_volume   188.20559883
_cell_formula_units_Z   2
loop_
 _symmetry_equiv_pos_site_id
 _symmetry_equiv_pos_as_xyz
  1  'x, y, z'
loop_
 _atom_site_type_symbol
 _atom_site_label
 _atom_site_symmetry_multiplicity
 _atom_site_fract_x
 _atom_site_fract_y
 _atom_site_fract_z
 _atom_site_occupancy
  Cd  Cd0  1  0.75000000  0.82249592  0.17750408  1
  Cd  Cd1  1  0.25000000  0.17750408  0.82249592  1
  Cd  Cd2  1  0.75000000  0.31178485  0.11923624  1
  Cd  Cd3  1  0.25000000  0.68821515  0.88076376  1
  Cd  Cd4  1  0.25000000  0.11923624  0.31178485  1
  Cd  Cd5  1  0.75000000  0.88076376  0.68821515  1
  Tm  Tm6  1  0.75000000  0.36858676  0.63141324  1
  Tm  Tm7  1  0.25000000  0.63141324  0.36858676  1
