# generated using pymatgen
data_LiMnF3
_symmetry_space_group_name_H-M   'P 1'
_cell_length_a   7.73081908
_cell_length_b   8.64343780
_cell_length_c   8.57623838
_cell_angle_alpha   83.36270945
_cell_angle_beta   67.02123367
_cell_angle_gamma   67.34220906
_symmetry_Int_Tables_number   1
_chemical_formula_structural   LiMnF3
_chemical_formula_sum   'Li8 Mn8 F24'
_cell_volume   486.47049029
_cell_formula_units_Z   8
loop_
 _symmetry_equiv_pos_site_id
 _symmetry_equiv_pos_as_xyz
  1  'x, y, z'
loop_
 _atom_site_type_symbol
 _atom_site_label
 _atom_site_symmetry_multiplicity
 _atom_site_fract_x
 _atom_site_fract_y
 _atom_site_fract_z
 _atom_site_occupancy
  Li  Li0  1  0.13684833  0.87986424  0.39283305  1
  Li  Li1  1  0.31804532  0.05528563  0.95988652  1
  Li  Li2  1  0.28904657  0.50753087  0.49043941  1
  Li  Li3  1  0.52175521  0.14261700  0.56116331  1
  Li  Li4  1  0.47824479  0.85738300  0.43883669  1
  Li  Li5  1  0.71095343  0.49246913  0.50956059  1
  Li  Li6  1  0.68195468  0.94471437  0.04011348  1
  Li  Li7  1  0.86315167  0.12013576  0.60716695  1
  Mn  Mn8  1  0.00173233  0.64264314  0.19629724  1
  Mn  Mn9  1  0.26830898  0.22279557  0.30722876  1
  Mn  Mn10  1  0.11643061  0.81843757  0.76821907  1
  Mn  Mn11  1  0.56271461  0.56907212  0.13447945  1
  Mn  Mn12  1  0.43728539  0.43092788  0.86552055  1
  Mn  Mn13  1  0.88356939  0.18156243  0.23178093  1
  Mn  Mn14  1  0.73169102  0.77720443  0.69277124  1
  Mn  Mn15  1  0.99826767  0.35735686  0.80370276  1
  F  F16  1  0.19558304  0.02062166  0.20200833  1
  F  F17  1  0.18897826  0.48815045  0.31734767  1
  F  F18  1  0.04644256  0.15724504  0.96371993  1
  F  F19  1  0.25096950  0.28195130  0.56794652  1
  F  F20  1  0.05000415  0.71149411  0.59450602  1
  F  F21  1  0.31238330  0.63331377  0.04148959  1
  F  F22  1  0.14753536  0.49442355  0.84475035  1
  F  F23  1  0.53704840  0.02594467  0.27829813  1
  F  F24  1  0.39730340  0.71210236  0.35254126  1
  F  F25  1  0.16196873  0.98975253  0.56685597  1
  F  F26  1  0.58354930  0.35452870  0.32137851  1
  F  F27  1  0.37096551  0.23572129  0.03085708  1
  F  F28  1  0.62903449  0.76427871  0.96914292  1
  F  F29  1  0.41645070  0.64547130  0.67862149  1
  F  F30  1  0.83803127  0.01024747  0.43314403  1
  F  F31  1  0.60269660  0.28789764  0.64745874  1
  F  F32  1  0.46295160  0.97405533  0.72170187  1
  F  F33  1  0.85246464  0.50557645  0.15524965  1
  F  F34  1  0.68761670  0.36668623  0.95851041  1
  F  F35  1  0.94999585  0.28850589  0.40549398  1
  F  F36  1  0.74903050  0.71804870  0.43205348  1
  F  F37  1  0.95355744  0.84275496  0.03628007  1
  F  F38  1  0.81102174  0.51184955  0.68265233  1
  F  F39  1  0.80441696  0.97937834  0.79799167  1
