# generated using pymatgen
data_Ca2Pb
_symmetry_space_group_name_H-M   'P 1'
_cell_length_a   5.15327447
_cell_length_b   7.98830496
_cell_length_c   9.70804127
_cell_angle_alpha   90.00000000
_cell_angle_beta   90.00000000
_cell_angle_gamma   90.00000000
_symmetry_Int_Tables_number   1
_chemical_formula_structural   Ca2Pb
_chemical_formula_sum   'Ca8 Pb4'
_cell_volume   399.64052803
_cell_formula_units_Z   4
loop_
 _symmetry_equiv_pos_site_id
 _symmetry_equiv_pos_as_xyz
  1  'x, y, z'
loop_
 _atom_site_type_symbol
 _atom_site_label
 _atom_site_symmetry_multiplicity
 _atom_site_fract_x
 _atom_site_fract_y
 _atom_site_fract_z
 _atom_site_occupancy
  Ca  Ca0  1  0.75000000  0.34146115  0.93006784  1
  Ca  Ca1  1  0.25000000  0.65853885  0.06993216  1
  Ca  Ca2  1  0.75000000  0.84146115  0.56993216  1
  Ca  Ca3  1  0.25000000  0.15853885  0.43006784  1
  Ca  Ca4  1  0.75000000  0.47855229  0.31459174  1
  Ca  Ca5  1  0.25000000  0.52144771  0.68540826  1
  Ca  Ca6  1  0.75000000  0.97855229  0.18540826  1
  Ca  Ca7  1  0.25000000  0.02144771  0.81459174  1
  Pb  Pb8  1  0.75000000  0.75191372  0.89069256  1
  Pb  Pb9  1  0.25000000  0.24808628  0.10930744  1
  Pb  Pb10  1  0.75000000  0.25191372  0.60930744  1
  Pb  Pb11  1  0.25000000  0.74808628  0.39069256  1
