# generated using pymatgen
data_Ca3Ga5
_symmetry_space_group_name_H-M   'P 1'
_cell_length_a   4.47368519
_cell_length_b   5.86476299
_cell_length_c   15.04904931
_cell_angle_alpha   90.00000000
_cell_angle_beta   90.00000000
_cell_angle_gamma   112.42066124
_symmetry_Int_Tables_number   1
_chemical_formula_structural   Ca3Ga5
_chemical_formula_sum   'Ca6 Ga10'
_cell_volume   364.99667456
_cell_formula_units_Z   2
loop_
 _symmetry_equiv_pos_site_id
 _symmetry_equiv_pos_as_xyz
  1  'x, y, z'
loop_
 _atom_site_type_symbol
 _atom_site_label
 _atom_site_symmetry_multiplicity
 _atom_site_fract_x
 _atom_site_fract_y
 _atom_site_fract_z
 _atom_site_occupancy
  Ca  Ca0  1  0.13031983  0.26063965  0.75000000  1
  Ca  Ca1  1  0.86968017  0.73936035  0.25000000  1
  Ca  Ca2  1  0.58813985  0.17627970  0.11000780  1
  Ca  Ca3  1  0.41186015  0.82372030  0.88999220  1
  Ca  Ca4  1  0.41186015  0.82372030  0.61000780  1
  Ca  Ca5  1  0.58813985  0.17627970  0.38999220  1
  Ga  Ga6  1  0.83797067  0.67594134  0.75000000  1
  Ga  Ga7  1  0.16202933  0.32405866  0.25000000  1
  Ga  Ga8  1  0.29220099  0.58440199  0.40033555  1
  Ga  Ga9  1  0.70779901  0.41559801  0.59966445  1
  Ga  Ga10  1  0.70779901  0.41559801  0.90033555  1
  Ga  Ga11  1  0.29220099  0.58440199  0.09966445  1
  Ga  Ga12  1  0.11508384  0.23016768  0.53399680  1
  Ga  Ga13  1  0.88491616  0.76983232  0.46600320  1
  Ga  Ga14  1  0.88491616  0.76983232  0.03399680  1
  Ga  Ga15  1  0.11508384  0.23016768  0.96600320  1
