# generated using pymatgen
data_Li11Cr3Fe3O16
_symmetry_space_group_name_H-M   'P 1'
_cell_length_a   5.98168799
_cell_length_b   5.97091054
_cell_length_c   10.05078947
_cell_angle_alpha   97.35644244
_cell_angle_beta   97.19458121
_cell_angle_gamma   59.21503523
_symmetry_Int_Tables_number   1
_chemical_formula_structural   Li11Cr3Fe3O16
_chemical_formula_sum   'Li11 Cr3 Fe3 O16'
_cell_volume   305.10323373
_cell_formula_units_Z   1
loop_
 _symmetry_equiv_pos_site_id
 _symmetry_equiv_pos_as_xyz
  1  'x, y, z'
loop_
 _atom_site_type_symbol
 _atom_site_label
 _atom_site_symmetry_multiplicity
 _atom_site_fract_x
 _atom_site_fract_y
 _atom_site_fract_z
 _atom_site_occupancy
  Li  Li0  1  0.04506687  0.04646479  0.00218265  1
  Li  Li1  1  0.64840351  0.12865653  0.55273838  1
  Li  Li2  1  0.30523765  0.29768526  0.05546065  1
  Li  Li3  1  0.35403541  0.34965760  0.80391976  1
  Li  Li4  1  0.23924767  0.24234660  0.56553932  1
  Li  Li5  1  0.12984699  0.64906690  0.55441504  1
  Li  Li6  1  0.63337658  0.63504268  0.53798217  1
  Li  Li7  1  0.67540354  0.67609521  0.29302850  1
  Li  Li8  1  0.56849695  0.56026226  0.02692550  1
  Li  Li9  1  0.80487172  0.81170179  0.06575058  1
  Li  Li10  1  0.03762166  0.03738446  0.49004422  1
  Cr  Cr11  1  0.84541096  0.34755266  0.78031154  1
  Cr  Cr12  1  0.34660117  0.84492213  0.78132174  1
  Cr  Cr13  1  0.17061169  0.17067511  0.28316603  1
  Fe  Fe14  1  0.66816959  0.17311617  0.28504344  1
  Fe  Fe15  1  0.17248896  0.66836984  0.28483676  1
  Fe  Fe16  1  0.84339545  0.84621699  0.78610118  1
  O  O17  1  0.19218237  0.17261215  0.88442290  1
  O  O18  1  0.48798791  0.00575494  0.17732630  1
  O  O19  1  0.71538476  0.18903657  0.89214192  1
  O  O20  1  0.98888024  0.98729277  0.17356854  1
  O  O21  1  0.34250408  0.34326346  0.40834825  1
  O  O22  1  0.00647793  0.48607428  0.17585714  1
  O  O23  1  0.47581077  0.47389674  0.18110591  1
  O  O24  1  0.85592419  0.33509219  0.39384362  1
  O  O25  1  0.19833046  0.71693115  0.88911097  1
  O  O26  1  0.49499816  0.51661745  0.67190640  1
  O  O27  1  0.33444345  0.85766068  0.39394523  1
  O  O28  1  0.98041026  0.51239601  0.67049910  1
  O  O29  1  0.68769741  0.69224800  0.89278100  1
  O  O30  1  0.50473508  0.97984025  0.67238799  1
  O  O31  1  0.86378571  0.86663541  0.39795089  1
  O  O32  1  -0.00019413  0.99726499  0.66705039  1
