# generated using pymatgen
data_Ta2Se8I
_symmetry_space_group_name_H-M   'P 1'
_cell_length_a   9.49554901
_cell_length_b   9.49554902
_cell_length_c   9.49554902
_cell_angle_alpha   93.63614271
_cell_angle_beta   117.92335154
_cell_angle_gamma   117.92335152
_symmetry_Int_Tables_number   1
_chemical_formula_structural   Ta2Se8I
_chemical_formula_sum   'Ta4 Se16 I2'
_cell_volume   623.04945196
_cell_formula_units_Z   2
loop_
 _symmetry_equiv_pos_site_id
 _symmetry_equiv_pos_as_xyz
  1  'x, y, z'
loop_
 _atom_site_type_symbol
 _atom_site_label
 _atom_site_symmetry_multiplicity
 _atom_site_fract_x
 _atom_site_fract_y
 _atom_site_fract_z
 _atom_site_occupancy
  Se  Se0  1  0.75545612  0.34013274  0.67567045  1
  Se  Se1  1  0.24454388  0.92021432  0.58467662  1
  Se  Se2  1  0.24454388  0.32432955  0.65986726  1
  Se  Se3  1  0.66446230  0.58467662  0.34013274  1
  Se  Se4  1  0.33553770  0.67567045  0.92021432  1
  Se  Se5  1  0.33553770  0.65986726  0.41532338  1
  Se  Se6  1  0.43383955  0.19552057  -0.00154945  1
  Se  Se7  1  0.80292998  -0.00154945  0.56461100  1
  Se  Se8  1  0.19707002  0.76168101  0.19552057  1
  Se  Se9  1  0.19707002  0.43538900  1.00154945  1
  Se  Se10  1  0.80292998  0.80447943  0.23831899  1
  Se  Se11  1  0.56616045  0.56461100  0.76168101  1
  Se  Se12  1  0.56616045  1.00154945  0.80447943  1
  Se  Se13  1  0.43383955  0.23831899  0.43538900  1
  Se  Se14  1  0.75545612  0.41532338  0.07978568  1
  Se  Se15  1  0.66446230  0.07978568  0.32432955  1
  I  I16  1  0.00000000  0.84554108  0.84554108  1
  I  I17  1  0.00000000  0.15445892  0.15445892  1
  Ta  Ta18  1  0.50000000  0.25000000  0.75000000  1
  Ta  Ta19  1  0.50000000  0.75000000  0.25000000  1
  Ta  Ta20  1  0.50000000  0.00000000  0.50000000  1
  Ta  Ta21  1  0.50000000  0.50000000  0.00000000  1
