# generated using pymatgen
data_TaS3
_symmetry_space_group_name_H-M   'P 1'
_cell_length_a   3.36403813
_cell_length_b   10.05729712
_cell_length_c   15.13112142
_cell_angle_alpha   109.63093166
_cell_angle_beta   90.00000000
_cell_angle_gamma   90.00000000
_symmetry_Int_Tables_number   1
_chemical_formula_structural   TaS3
_chemical_formula_sum   'Ta6 S18'
_cell_volume   482.17771899
_cell_formula_units_Z   6
loop_
 _symmetry_equiv_pos_site_id
 _symmetry_equiv_pos_as_xyz
  1  'x, y, z'
loop_
 _atom_site_type_symbol
 _atom_site_label
 _atom_site_symmetry_multiplicity
 _atom_site_fract_x
 _atom_site_fract_y
 _atom_site_fract_z
 _atom_site_occupancy
  Ta  Ta0  1  0.25000000  0.48133099  0.11682286  1
  Ta  Ta1  1  0.75000000  0.51866901  0.88317714  1
  Ta  Ta2  1  0.25000000  0.11404482  0.79531929  1
  Ta  Ta3  1  0.75000000  0.88595518  0.20468071  1
  Ta  Ta4  1  0.25000000  0.15236625  0.45960271  1
  Ta  Ta5  1  0.75000000  0.84763375  0.54039729  1
  S  S6  1  0.25000000  0.37604239  0.93518071  1
  S  S7  1  0.75000000  0.62395761  0.06481929  1
  S  S8  1  0.25000000  0.71591664  0.90331463  1
  S  S9  1  0.75000000  0.28408336  0.09668537  1
  S  S10  1  0.25000000  0.55706085  0.76948400  1
  S  S11  1  0.75000000  0.44293915  0.23051600  1
  S  S12  1  0.25000000  0.90210668  0.08884098  1
  S  S13  1  0.75000000  0.09789332  0.91115902  1
  S  S14  1  0.25000000  0.08052826  0.27926617  1
  S  S15  1  0.75000000  0.91947174  0.72073383  1
  S  S16  1  0.25000000  0.72813833  0.24646202  1
  S  S17  1  0.75000000  0.27186167  0.75353798  1
  S  S18  1  0.25000000  0.67708234  0.56753322  1
  S  S19  1  0.75000000  0.32291766  0.43246678  1
  S  S20  1  0.25000000  0.04168574  0.59305061  1
  S  S21  1  0.75000000  0.95831426  0.40694939  1
  S  S22  1  0.25000000  0.68343850  0.43155151  1
  S  S23  1  0.75000000  0.31656150  0.56844849  1
