# generated using pymatgen
data_Tl2ZnI4
_symmetry_space_group_name_H-M   'P 1'
_cell_length_a   7.95845004
_cell_length_b   8.27646041
_cell_length_c   9.61294415
_cell_angle_alpha   90.00000000
_cell_angle_beta   107.92909270
_cell_angle_gamma   90.00000000
_symmetry_Int_Tables_number   1
_chemical_formula_structural   Tl2ZnI4
_chemical_formula_sum   'Tl4 Zn2 I8'
_cell_volume   602.43493352
_cell_formula_units_Z   2
loop_
 _symmetry_equiv_pos_site_id
 _symmetry_equiv_pos_as_xyz
  1  'x, y, z'
loop_
 _atom_site_type_symbol
 _atom_site_label
 _atom_site_symmetry_multiplicity
 _atom_site_fract_x
 _atom_site_fract_y
 _atom_site_fract_z
 _atom_site_occupancy
  Zn  Zn0  1  0.21865512  0.02692272  0.79910647  1
  Zn  Zn1  1  0.78134488  0.52692272  0.20089353  1
  I  I2  1  0.97652958  0.26003744  0.73065435  1
  I  I3  1  0.02347042  0.76003744  0.26934565  1
  I  I4  1  0.02871889  0.75945072  0.74717633  1
  I  I5  1  0.97128111  0.25945072  0.25282367  1
  I  I6  1  0.58134441  0.55673925  0.37435880  1
  I  I7  1  0.41865559  0.05673925  0.62564120  1
  I  I8  1  0.59277359  0.56372613  0.92419237  1
  I  I9  1  0.40722641  0.06372613  0.07580763  1
  Tl  Tl10  1  0.74856992  0.96470196  0.43415586  1
  Tl  Tl11  1  0.25143008  0.46470196  0.56584414  1
  Tl  Tl12  1  0.76823980  0.98109178  0.94577793  1
  Tl  Tl13  1  0.23176020  0.48109178  0.05422207  1
