# generated using pymatgen
data_TbP5O14
_symmetry_space_group_name_H-M   'P 1'
_cell_length_a   8.83634079
_cell_length_b   9.01736431
_cell_length_c   13.00955745
_cell_angle_alpha   90.00000000
_cell_angle_beta   90.45490244
_cell_angle_gamma   90.00000000
_symmetry_Int_Tables_number   1
_chemical_formula_structural   TbP5O14
_chemical_formula_sum   'Tb4 P20 O56'
_cell_volume   1036.57542293
_cell_formula_units_Z   4
loop_
 _symmetry_equiv_pos_site_id
 _symmetry_equiv_pos_as_xyz
  1  'x, y, z'
loop_
 _atom_site_type_symbol
 _atom_site_label
 _atom_site_symmetry_multiplicity
 _atom_site_fract_x
 _atom_site_fract_y
 _atom_site_fract_z
 _atom_site_occupancy
  O  O0  1  0.58386487  0.61558850  0.38027842  1
  O  O1  1  0.41613513  0.11558850  0.11972158  1
  O  O2  1  0.41613513  0.38441150  0.61972158  1
  O  O3  1  0.58386487  0.88441150  0.88027842  1
  O  O4  1  0.41927500  0.37656472  0.38833864  1
  O  O5  1  0.58072500  0.87656472  0.11166136  1
  O  O6  1  0.58072500  0.62343528  0.61166136  1
  O  O7  1  0.41927500  0.12343528  0.88833864  1
  O  O8  1  0.36717090  0.57944873  0.25648484  1
  O  O9  1  0.63282910  0.07944873  0.24351516  1
  O  O10  1  0.63282910  0.42055127  0.74351516  1
  O  O11  1  0.36717090  0.92055127  0.75648484  1
  O  O12  1  0.27590459  0.40372810  0.10975386  1
  O  O13  1  0.72409541  0.90372810  0.39024614  1
  O  O14  1  0.72409541  0.59627190  0.89024614  1
  O  O15  1  0.27590459  0.09627190  0.60975386  1
  O  O16  1  0.27651931  0.69014233  0.09934502  1
  O  O17  1  0.72348069  0.19014233  0.40065498  1
  O  O18  1  0.72348069  0.30985767  0.90065498  1
  O  O19  1  0.21092756  0.91804152  0.99964695  1
  O  O20  1  0.27651931  0.80985767  0.59934502  1
  O  O21  1  0.97192327  0.18969145  0.50503819  1
  O  O22  1  0.97192327  0.31030855  0.00503819  1
  O  O23  1  0.02807673  0.81030855  0.49496181  1
  O  O24  1  0.91417995  0.88203860  0.14508153  1
  O  O25  1  0.08582005  0.38203860  0.35491847  1
  O  O26  1  0.08582005  0.11796140  0.85491847  1
  O  O27  1  0.91417995  0.61796140  0.64508153  1
  O  O28  1  0.08936727  0.11598123  0.14653053  1
  O  O29  1  0.91063273  0.61598123  0.35346947  1
  O  O30  1  0.91063273  0.88401877  0.85346947  1
  O  O31  1  0.08936727  0.38401877  0.64653053  1
  O  O32  1  0.12645502  0.90266994  0.27142984  1
  O  O33  1  0.87354498  0.40266994  0.22857016  1
  O  O34  1  0.87354498  0.09733006  0.72857016  1
  O  O35  1  0.12645502  0.59733006  0.77142984  1
  O  O36  1  0.90777684  0.07257742  0.28876363  1
  O  O37  1  0.09222316  0.57257742  0.21123637  1
  O  O38  1  0.09222316  0.92742258  0.71123637  1
  O  O39  1  0.90777684  0.42742258  0.78876363  1
  O  O40  1  0.26718836  0.09764265  0.38496863  1
  O  O41  1  0.73281164  0.59764265  0.11503137  1
  O  O42  1  0.73281164  0.90235735  0.61503137  1
  O  O43  1  0.26718836  0.40235735  0.88496863  1
  O  O44  1  0.29092129  0.81429551  0.41053144  1
  O  O45  1  0.70907871  0.31429551  0.08946856  1
  O  O46  1  0.70907871  0.18570449  0.58946856  1
  O  O47  1  0.29092129  0.68570449  0.91053144  1
  O  O48  1  0.40787627  0.91778237  0.26140366  1
  O  O49  1  0.59212373  0.41778237  0.23859634  1
  O  O50  1  0.59212373  0.08221763  0.73859634  1
  O  O51  1  0.40787627  0.58221763  0.76140366  1
  O  O52  1  0.21092756  0.58195848  0.49964695  1
  O  O53  1  0.78907244  0.08195848  0.00035305  1
  O  O54  1  0.78907244  0.41804152  0.50035305  1
  O  O55  1  0.02807673  0.68969145  0.99496181  1
  P  P56  1  0.49373261  0.49710121  0.32910159  1
  P  P57  1  0.50626739  0.99710121  0.17089841  1
  P  P58  1  0.50626739  0.50289879  0.67089841  1
  P  P59  1  0.49373261  0.00289879  0.82910159  1
  P  P60  1  0.25439467  0.54502845  0.16527095  1
  P  P61  1  0.74560533  0.04502845  0.33472905  1
  P  P62  1  0.74560533  0.45497155  0.83472905  1
  P  P63  1  0.25439467  0.95497155  0.66527095  1
  P  P64  1  0.18287027  0.75556938  0.00001033  1
  P  P65  1  0.81712973  0.25556938  0.49998967  1
  P  P66  1  0.81712973  0.24443062  0.99998967  1
  P  P67  1  0.18287027  0.74443062  0.50001033  1
  P  P68  1  0.27175365  0.54961132  0.83562003  1
  P  P69  1  0.72824635  0.04961132  0.66437997  1
  P  P70  1  0.72824635  0.45038868  0.16437997  1
  P  P71  1  0.27175365  0.95038868  0.33562003  1
  P  P72  1  0.00776794  0.50547810  0.70000032  1
  P  P73  1  0.99223206  0.00547810  0.79999968  1
  P  P74  1  0.99223206  0.49452190  0.29999968  1
  P  P75  1  0.00776794  0.99452190  0.20000032  1
  Tb  Tb76  1  0.22277542  0.31191416  0.50133760  1
  Tb  Tb77  1  0.77722458  0.81191416  0.99866240  1
  Tb  Tb78  1  0.77722458  0.68808584  0.49866240  1
  Tb  Tb79  1  0.22277542  0.18808584  0.00133760  1
