# generated using pymatgen
data_Nd5Ir3
_symmetry_space_group_name_H-M   'P 1'
_cell_length_a   6.60495403
_cell_length_b   11.26233633
_cell_length_c   11.26233633
_cell_angle_alpha   90.00000000
_cell_angle_beta   90.00000000
_cell_angle_gamma   90.00000000
_symmetry_Int_Tables_number   1
_chemical_formula_structural   Nd5Ir3
_chemical_formula_sum   'Nd20 Ir12'
_cell_volume   837.77381968
_cell_formula_units_Z   4
loop_
 _symmetry_equiv_pos_site_id
 _symmetry_equiv_pos_as_xyz
  1  'x, y, z'
loop_
 _atom_site_type_symbol
 _atom_site_label
 _atom_site_symmetry_multiplicity
 _atom_site_fract_x
 _atom_site_fract_y
 _atom_site_fract_z
 _atom_site_occupancy
  Nd  Nd0  1  0.11761269  0.04242287  0.33997444  1
  Nd  Nd1  1  0.11761269  0.16002556  0.04242287  1
  Nd  Nd2  1  0.11761269  0.33997444  0.45757713  1
  Nd  Nd3  1  0.11761269  0.45757713  0.16002556  1
  Nd  Nd4  1  0.38238731  0.54242287  0.66002556  1
  Nd  Nd5  1  0.38238731  0.95757713  0.83997444  1
  Nd  Nd6  1  0.38238731  0.83997444  0.54242287  1
  Nd  Nd7  1  0.38238731  0.66002556  0.95757713  1
  Nd  Nd8  1  0.88238731  0.95757713  0.66002556  1
  Nd  Nd9  1  0.88238731  0.83997444  0.95757713  1
  Nd  Nd10  1  0.88238731  0.66002556  0.54242287  1
  Nd  Nd11  1  0.88238731  0.54242287  0.83997444  1
  Nd  Nd12  1  0.61761269  0.45757713  0.33997444  1
  Nd  Nd13  1  0.61761269  0.04242287  0.16002556  1
  Nd  Nd14  1  0.61761269  0.16002556  0.45757713  1
  Nd  Nd15  1  0.61761269  0.33997444  0.04242287  1
  Nd  Nd16  1  0.00000000  0.75000000  0.25000000  1
  Nd  Nd17  1  0.00000000  0.25000000  0.75000000  1
  Nd  Nd18  1  0.50000000  0.25000000  0.75000000  1
  Nd  Nd19  1  0.50000000  0.75000000  0.25000000  1
  Ir  Ir20  1  0.25000000  0.59644779  0.40355221  1
  Ir  Ir21  1  0.25000000  0.09644779  0.59644779  1
  Ir  Ir22  1  0.25000000  0.40355221  0.90355221  1
  Ir  Ir23  1  0.25000000  0.90355221  0.09644779  1
  Ir  Ir24  1  0.75000000  0.40355221  0.59644779  1
  Ir  Ir25  1  0.75000000  0.90355221  0.40355221  1
  Ir  Ir26  1  0.75000000  0.59644779  0.09644779  1
  Ir  Ir27  1  0.75000000  0.09644779  0.90355221  1
  Ir  Ir28  1  0.37996159  0.25000000  0.25000000  1
  Ir  Ir29  1  0.12003841  0.75000000  0.75000000  1
  Ir  Ir30  1  0.62003841  0.75000000  0.75000000  1
  Ir  Ir31  1  0.87996159  0.25000000  0.25000000  1
