# generated using pymatgen
data_CsGa7
_symmetry_space_group_name_H-M   'P 1'
_cell_length_a   10.50354391
_cell_length_b   10.50354390
_cell_length_c   10.50354390
_cell_angle_alpha   37.60741375
_cell_angle_beta   37.60741375
_cell_angle_gamma   37.60741375
_symmetry_Int_Tables_number   1
_chemical_formula_structural   CsGa7
_chemical_formula_sum   'Cs2 Ga14'
_cell_volume   387.09042944
_cell_formula_units_Z   2
loop_
 _symmetry_equiv_pos_site_id
 _symmetry_equiv_pos_as_xyz
  1  'x, y, z'
loop_
 _atom_site_type_symbol
 _atom_site_label
 _atom_site_symmetry_multiplicity
 _atom_site_fract_x
 _atom_site_fract_y
 _atom_site_fract_z
 _atom_site_occupancy
  Ga  Ga0  1  0.78473020  0.78473020  0.20340653  1
  Ga  Ga1  1  0.78473020  0.20340653  0.78473020  1
  Ga  Ga2  1  0.45520705  0.45520705  0.45520705  1
  Ga  Ga3  1  0.54479295  0.54479295  0.54479295  1
  Ga  Ga4  1  0.81816666  0.41769459  0.81816666  1
  Ga  Ga5  1  0.81816666  0.81816666  0.41769459  1
  Ga  Ga6  1  0.41769459  0.81816666  0.81816666  1
  Ga  Ga7  1  0.58230541  0.18183334  0.18183334  1
  Ga  Ga8  1  0.18183334  0.58230541  0.18183334  1
  Ga  Ga9  1  0.18183334  0.18183334  0.58230541  1
  Ga  Ga10  1  0.21526980  0.79659347  0.21526980  1
  Ga  Ga11  1  0.21526980  0.21526980  0.79659347  1
  Ga  Ga12  1  0.79659347  0.21526980  0.21526980  1
  Ga  Ga13  1  0.20340653  0.78473020  0.78473020  1
  Cs  Cs14  1  0.19476964  0.19476964  0.19476964  1
  Cs  Cs15  1  0.80523036  0.80523036  0.80523036  1
