# generated using pymatgen
data_Th7Co3
_symmetry_space_group_name_H-M   'P 1'
_cell_length_a   9.75158132
_cell_length_b   9.75158132
_cell_length_c   6.18422534
_cell_angle_alpha   90.00000000
_cell_angle_beta   90.00000000
_cell_angle_gamma   120.00000000
_symmetry_Int_Tables_number   1
_chemical_formula_structural   Th7Co3
_chemical_formula_sum   'Th14 Co6'
_cell_volume   509.29103473
_cell_formula_units_Z   2
loop_
 _symmetry_equiv_pos_site_id
 _symmetry_equiv_pos_as_xyz
  1  'x, y, z'
loop_
 _atom_site_type_symbol
 _atom_site_label
 _atom_site_symmetry_multiplicity
 _atom_site_fract_x
 _atom_site_fract_y
 _atom_site_fract_z
 _atom_site_occupancy
  Co  Co0  1  0.81474630  0.18525370  0.29952204  1
  Co  Co1  1  0.62949260  0.81474630  0.79952204  1
  Co  Co2  1  0.18525370  0.37050740  0.79952204  1
  Co  Co3  1  0.81474630  0.62949260  0.29952204  1
  Co  Co4  1  0.37050740  0.18525370  0.29952204  1
  Co  Co5  1  0.18525370  0.81474630  0.79952204  1
  Th  Th6  1  0.33333333  0.66666667  0.04903185  1
  Th  Th7  1  0.66666667  0.33333333  0.54903185  1
  Th  Th8  1  0.12619647  0.87380353  0.24450731  1
  Th  Th9  1  0.25239295  0.12619647  0.74450731  1
  Th  Th10  1  0.87380353  0.74760705  0.74450731  1
  Th  Th11  1  0.12619647  0.25239295  0.24450731  1
  Th  Th12  1  0.74760705  0.87380353  0.24450731  1
  Th  Th13  1  0.87380353  0.12619647  0.74450731  1
  Th  Th14  1  0.54414473  0.45585527  0.04962671  1
  Th  Th15  1  0.08828946  0.54414473  0.54962671  1
  Th  Th16  1  0.45585527  0.91171054  0.54962671  1
  Th  Th17  1  0.54414473  0.08828946  0.04962671  1
  Th  Th18  1  0.91171054  0.45585527  0.04962671  1
  Th  Th19  1  0.45585527  0.54414473  0.54962671  1
