# generated using pymatgen
data_SrCuSn2
_symmetry_space_group_name_H-M   'P 1'
_cell_length_a   4.57739355
_cell_length_b   4.63729755
_cell_length_c   10.06565214
_cell_angle_alpha   103.31782948
_cell_angle_beta   90.00000000
_cell_angle_gamma   90.00000000
_symmetry_Int_Tables_number   1
_chemical_formula_structural   SrCuSn2
_chemical_formula_sum   'Sr2 Cu2 Sn4'
_cell_volume   207.91500675
_cell_formula_units_Z   2
loop_
 _symmetry_equiv_pos_site_id
 _symmetry_equiv_pos_as_xyz
  1  'x, y, z'
loop_
 _atom_site_type_symbol
 _atom_site_label
 _atom_site_symmetry_multiplicity
 _atom_site_fract_x
 _atom_site_fract_y
 _atom_site_fract_z
 _atom_site_occupancy
  Cu  Cu0  1  0.75000000  0.17515852  0.35031703  1
  Cu  Cu1  1  0.25000000  0.82484148  0.64968297  1
  Sr  Sr2  1  0.75000000  0.39191097  0.78382193  1
  Sr  Sr3  1  0.25000000  0.60808903  0.21617807  1
  Sn  Sn4  1  0.25000000  0.24965400  0.49930800  1
  Sn  Sn5  1  0.25000000  0.95674519  0.91349038  1
  Sn  Sn6  1  0.75000000  0.75034600  0.50069200  1
  Sn  Sn7  1  0.75000000  0.04325481  0.08650962  1
