# generated using pymatgen
data_Zn13Co
_symmetry_space_group_name_H-M   'P 1'
_cell_length_a   5.05835397
_cell_length_b   6.61704827
_cell_length_c   6.61704826
_cell_angle_alpha   70.18533704
_cell_angle_beta   80.65110904
_cell_angle_gamma   80.65110908
_symmetry_Int_Tables_number   1
_chemical_formula_structural   Zn13Co
_chemical_formula_sum   'Zn13 Co1'
_cell_volume   204.22082947
_cell_formula_units_Z   1
loop_
 _symmetry_equiv_pos_site_id
 _symmetry_equiv_pos_as_xyz
  1  'x, y, z'
loop_
 _atom_site_type_symbol
 _atom_site_label
 _atom_site_symmetry_multiplicity
 _atom_site_fract_x
 _atom_site_fract_y
 _atom_site_fract_z
 _atom_site_occupancy
  Co  Co0  1  0.50000000  0.00000000  0.00000000  1
  Zn  Zn1  1  0.00000000  0.00000000  0.00000000  1
  Zn  Zn2  1  0.92968927  0.38695556  0.38695556  1
  Zn  Zn3  1  0.07031073  0.61304444  0.61304444  1
  Zn  Zn4  1  0.37241370  0.77860817  0.77860817  1
  Zn  Zn5  1  0.62758630  0.22139183  0.22139183  1
  Zn  Zn6  1  0.31709781  0.62902412  0.21619032  1
  Zn  Zn7  1  0.68290219  0.78380968  0.37097588  1
  Zn  Zn8  1  0.68290219  0.37097588  0.78380968  1
  Zn  Zn9  1  0.31709781  0.21619032  0.62902412  1
  Zn  Zn10  1  0.80108705  0.64464531  0.00322980  1
  Zn  Zn11  1  0.19891295  0.99677020  0.35535469  1
  Zn  Zn12  1  0.19891295  0.35535469  0.99677020  1
  Zn  Zn13  1  0.80108705  0.00322980  0.64464531  1
