# generated using pymatgen
data_Li4MnF8
_symmetry_space_group_name_H-M   'P 1'
_cell_length_a   5.95077544
_cell_length_b   5.71437037
_cell_length_c   5.95077542
_cell_angle_alpha   118.69432878
_cell_angle_beta   57.38865284
_cell_angle_gamma   118.69433054
_symmetry_Int_Tables_number   1
_chemical_formula_structural   Li4MnF8
_chemical_formula_sum   'Li4 Mn1 F8'
_cell_volume   142.65256356
_cell_formula_units_Z   1
loop_
 _symmetry_equiv_pos_site_id
 _symmetry_equiv_pos_as_xyz
  1  'x, y, z'
loop_
 _atom_site_type_symbol
 _atom_site_label
 _atom_site_symmetry_multiplicity
 _atom_site_fract_x
 _atom_site_fract_y
 _atom_site_fract_z
 _atom_site_occupancy
  Li  Li0  1  0.00000000  0.50000000  0.50000000  1
  Li  Li1  1  0.50000000  0.50000000  0.00000000  1
  Li  Li2  1  0.00000000  0.00000000  0.50000000  1
  Li  Li3  1  0.50000000  0.00000000  0.00000000  1
  Mn  Mn4  1  0.00000000  0.00000000  0.00000000  1
  F  F5  1  0.25000000  0.75000000  0.25000000  1
  F  F6  1  0.21630908  0.21630908  0.21630908  1
  F  F7  1  0.22567754  0.77432246  0.77432246  1
  F  F8  1  0.22567754  0.22567754  0.77432246  1
  F  F9  1  0.77432246  0.77432246  0.22567754  1
  F  F10  1  0.77432246  0.22567754  0.22567754  1
  F  F11  1  0.78369092  0.78369092  0.78369092  1
  F  F12  1  0.75000000  0.25000000  0.75000000  1
