# generated using pymatgen
data_LaCu6
_symmetry_space_group_name_H-M   'P 1'
_cell_length_a   5.10746503
_cell_length_b   8.16384013
_cell_length_c   10.21730207
_cell_angle_alpha   90.00000000
_cell_angle_beta   90.00000000
_cell_angle_gamma   92.04605104
_symmetry_Int_Tables_number   1
_chemical_formula_structural   LaCu6
_chemical_formula_sum   'La4 Cu24'
_cell_volume   425.75441026
_cell_formula_units_Z   4
loop_
 _symmetry_equiv_pos_site_id
 _symmetry_equiv_pos_as_xyz
  1  'x, y, z'
loop_
 _atom_site_type_symbol
 _atom_site_label
 _atom_site_symmetry_multiplicity
 _atom_site_fract_x
 _atom_site_fract_y
 _atom_site_fract_z
 _atom_site_occupancy
  Cu  Cu0  1  0.99307560  0.56043927  0.81173381  1
  Cu  Cu1  1  0.00692440  0.93956073  0.31173381  1
  Cu  Cu2  1  0.00692440  0.43956073  0.18826619  1
  Cu  Cu3  1  0.99307560  0.06043927  0.68826619  1
  Cu  Cu4  1  0.50188728  0.56631709  0.80725189  1
  Cu  Cu5  1  0.49811272  0.93368291  0.30725189  1
  Cu  Cu6  1  0.49811272  0.43368291  0.19274811  1
  Cu  Cu7  1  0.50188728  0.06631709  0.69274811  1
  Cu  Cu8  1  0.76047897  0.84982825  0.85875901  1
  Cu  Cu9  1  0.23952103  0.65017175  0.35875901  1
  Cu  Cu10  1  0.23952103  0.15017175  0.14124099  1
  Cu  Cu11  1  0.76047897  0.34982825  0.64124099  1
  Cu  Cu12  1  0.75038162  0.18315229  0.24525313  1
  Cu  Cu13  1  0.24961838  0.31684771  0.74525313  1
  Cu  Cu14  1  0.24961838  0.81684771  0.75474687  1
  Cu  Cu15  1  0.75038162  0.68315229  0.25474687  1
  Cu  Cu16  1  0.77982292  0.43834263  0.40121552  1
  Cu  Cu17  1  0.22017708  0.06165737  0.90121552  1
  Cu  Cu18  1  0.22017708  0.56165737  0.59878448  1
  Cu  Cu19  1  0.77982292  0.93834263  0.09878448  1
  Cu  Cu20  1  0.74939238  0.09823586  0.48437640  1
  Cu  Cu21  1  0.25060762  0.40176414  0.98437640  1
  Cu  Cu22  1  0.25060762  0.90176414  0.51562360  1
  Cu  Cu23  1  0.74939238  0.59823586  0.01562360  1
  La  La24  1  0.73819606  0.73790838  0.56346258  1
  La  La25  1  0.26180394  0.76209162  0.06346258  1
  La  La26  1  0.26180394  0.26209162  0.43653742  1
  La  La27  1  0.73819606  0.23790838  0.93653742  1
