# generated using pymatgen
data_Sc3(MnGa3)2
_symmetry_space_group_name_H-M   'P 1'
_cell_length_a   8.09308994
_cell_length_b   8.55235499
_cell_length_c   10.60663762
_cell_angle_alpha   90.00000000
_cell_angle_beta   90.00000000
_cell_angle_gamma   90.00000000
_symmetry_Int_Tables_number   1
_chemical_formula_structural   Sc3(MnGa3)2
_chemical_formula_sum   'Sc12 Mn8 Ga24'
_cell_volume   734.13819093
_cell_formula_units_Z   4
loop_
 _symmetry_equiv_pos_site_id
 _symmetry_equiv_pos_as_xyz
  1  'x, y, z'
loop_
 _atom_site_type_symbol
 _atom_site_label
 _atom_site_symmetry_multiplicity
 _atom_site_fract_x
 _atom_site_fract_y
 _atom_site_fract_z
 _atom_site_occupancy
  Sc  Sc0  1  0.56296989  0.94520869  0.13870986  1
  Sc  Sc1  1  0.06296989  0.55479131  0.36129014  1
  Sc  Sc2  1  0.43703011  0.44520869  0.86129014  1
  Sc  Sc3  1  0.93703011  0.05479131  0.63870986  1
  Sc  Sc4  1  0.43703011  0.05479131  0.86129014  1
  Sc  Sc5  1  0.93703011  0.44520869  0.63870986  1
  Sc  Sc6  1  0.56296989  0.55479131  0.13870986  1
  Sc  Sc7  1  0.06296989  0.94520869  0.36129014  1
  Sc  Sc8  1  0.95779151  0.75000000  0.06302772  1
  Sc  Sc9  1  0.45779151  0.75000000  0.43697228  1
  Sc  Sc10  1  0.04220849  0.25000000  0.93697228  1
  Sc  Sc11  1  0.54220849  0.25000000  0.56302772  1
  Mn  Mn12  1  0.36245879  0.75000000  0.73427482  1
  Mn  Mn13  1  0.86245879  0.75000000  0.76572518  1
  Mn  Mn14  1  0.63754121  0.25000000  0.26572518  1
  Mn  Mn15  1  0.13754121  0.25000000  0.23427482  1
  Mn  Mn16  1  0.31026425  0.75000000  0.98299378  1
  Mn  Mn17  1  0.81026425  0.75000000  0.51700622  1
  Mn  Mn18  1  0.68973575  0.25000000  0.01700622  1
  Mn  Mn19  1  0.18973575  0.25000000  0.48299378  1
  Ga  Ga20  1  0.70493289  0.49480247  0.41334308  1
  Ga  Ga21  1  0.20493289  0.00519753  0.08665692  1
  Ga  Ga22  1  0.29506711  0.99480247  0.58665692  1
  Ga  Ga23  1  0.79506711  0.50519753  0.91334308  1
  Ga  Ga24  1  0.20493289  0.49480247  0.08665692  1
  Ga  Ga25  1  0.70493289  0.00519753  0.41334308  1
  Ga  Ga26  1  0.79506711  0.99480247  0.91334308  1
  Ga  Ga27  1  0.29506711  0.50519753  0.58665692  1
  Ga  Ga28  1  0.88213352  0.41657646  0.15457794  1
  Ga  Ga29  1  0.38213352  0.08342354  0.34542206  1
  Ga  Ga30  1  0.11786648  0.91657646  0.84542206  1
  Ga  Ga31  1  0.61786648  0.58342354  0.65457794  1
  Ga  Ga32  1  0.11786648  0.58342354  0.84542206  1
  Ga  Ga33  1  0.61786648  0.91657646  0.65457794  1
  Ga  Ga34  1  0.88213352  0.08342354  0.15457794  1
  Ga  Ga35  1  0.38213352  0.41657646  0.34542206  1
  Ga  Ga36  1  0.09497391  0.75000000  0.58606266  1
  Ga  Ga37  1  0.59497391  0.75000000  0.91393734  1
  Ga  Ga38  1  0.90502609  0.25000000  0.41393734  1
  Ga  Ga39  1  0.40502609  0.25000000  0.08606266  1
  Ga  Ga40  1  0.77826109  0.75000000  0.28141766  1
  Ga  Ga41  1  0.27826109  0.75000000  0.21858234  1
  Ga  Ga42  1  0.22173891  0.25000000  0.71858234  1
  Ga  Ga43  1  0.72173891  0.25000000  0.78141766  1
