# generated using pymatgen
data_LiV2O3F
_symmetry_space_group_name_H-M   'P 1'
_cell_length_a   6.09900690
_cell_length_b   8.00375211
_cell_length_c   8.00375211
_cell_angle_alpha   115.47584114
_cell_angle_beta   112.39621483
_cell_angle_gamma   67.60378517
_symmetry_Int_Tables_number   1
_chemical_formula_structural   LiV2O3F
_chemical_formula_sum   'Li4 V8 O12 F4'
_cell_volume   314.88164071
_cell_formula_units_Z   4
loop_
 _symmetry_equiv_pos_site_id
 _symmetry_equiv_pos_as_xyz
  1  'x, y, z'
loop_
 _atom_site_type_symbol
 _atom_site_label
 _atom_site_symmetry_multiplicity
 _atom_site_fract_x
 _atom_site_fract_y
 _atom_site_fract_z
 _atom_site_occupancy
  Li  Li0  1  0.12866827  0.26336909  0.02070563  1
  Li  Li1  1  0.37133173  0.02070563  0.26336909  1
  Li  Li2  1  0.62520971  0.99043666  0.74085708  1
  Li  Li3  1  0.87479029  0.74085708  0.99043666  1
  V  V4  1  0.75000000  0.24074301  0.24074301  1
  V  V5  1  0.49994240  0.48729816  0.98718296  1
  V  V6  1  0.00005760  0.98718296  0.48729816  1
  V  V7  1  0.88210065  0.62400555  0.37514866  1
  V  V8  1  0.13095854  0.37514866  0.62400555  1
  V  V9  1  0.61789935  0.37514866  0.62400555  1
  V  V10  1  0.36904146  0.62400555  0.37514866  1
  V  V11  1  0.25000000  0.76330211  0.76330211  1
  O  O12  1  0.84701445  0.39231635  0.14221863  1
  O  O13  1  0.09711118  0.14221863  0.39231635  1
  O  O14  1  0.40288882  0.39231635  0.14221863  1
  O  O15  1  0.65298555  0.14221863  0.39231635  1
  O  O16  1  0.75000000  0.49411197  0.49411197  1
  O  O17  1  0.48507791  0.27024812  0.74040294  1
  O  O18  1  0.01492209  0.74040294  0.27024812  1
  O  O19  1  0.25000000  0.51185731  0.51185731  1
  O  O20  1  0.34998619  0.85680226  0.60977249  1
  O  O21  1  0.90298404  0.85680226  0.60977249  1
  O  O22  1  0.59701596  0.60977249  0.85680226  1
  O  O23  1  0.15001381  0.60977249  0.85680226  1
  F  F24  1  0.25000000  0.00224491  0.00224491  1
  F  F25  1  0.50510524  0.73706308  0.24727256  1
  F  F26  1  0.99489476  0.24727256  0.73706308  1
  F  F27  1  0.75000000  0.00237754  0.00237754  1
