# generated using pymatgen
data_K2Ta3Cl9
_symmetry_space_group_name_H-M   'P 1'
_cell_length_a   9.74115345
_cell_length_b   9.89033234
_cell_length_c   9.89033234
_cell_angle_alpha   117.73214468
_cell_angle_beta   102.63352974
_cell_angle_gamma   102.63352973
_symmetry_Int_Tables_number   1
_chemical_formula_structural   K2Ta3Cl9
_chemical_formula_sum   'K4 Ta6 Cl18'
_cell_volume   764.23720852
_cell_formula_units_Z   2
loop_
 _symmetry_equiv_pos_site_id
 _symmetry_equiv_pos_as_xyz
  1  'x, y, z'
loop_
 _atom_site_type_symbol
 _atom_site_label
 _atom_site_symmetry_multiplicity
 _atom_site_fract_x
 _atom_site_fract_y
 _atom_site_fract_z
 _atom_site_occupancy
  Cl  Cl0  1  0.50000000  0.79504790  0.20495210  1
  Cl  Cl1  1  0.82017784  0.49741446  0.10799826  1
  Cl  Cl2  1  0.82017784  0.10799826  0.49741446  1
  Cl  Cl3  1  0.17982216  0.50258554  0.89200174  1
  Cl  Cl4  1  0.21560663  0.26823509  0.26823509  1
  Cl  Cl5  1  0.78439337  0.73176491  0.73176491  1
  Cl  Cl6  1  0.48578346  0.59848593  0.80504726  1
  Cl  Cl7  1  0.51421654  0.19495274  0.40151407  1
  Cl  Cl8  1  0.51421654  0.40151407  0.19495274  1
  Cl  Cl9  1  0.48578346  0.80504726  0.59848593  1
  Cl  Cl10  1  0.82856608  0.31813955  0.31813955  1
  Cl  Cl11  1  0.18546979  0.08446617  0.88010362  1
  Cl  Cl12  1  0.18546979  0.88010362  0.08446617  1
  Cl  Cl13  1  0.81453021  0.91553383  0.11989638  1
  Cl  Cl14  1  0.81453021  0.11989638  0.91553383  1
  Cl  Cl15  1  0.50000000  0.20495210  0.79504790  1
  Cl  Cl16  1  0.17143392  0.68186045  0.68186045  1
  Cl  Cl17  1  0.17982216  0.89200174  0.50258554  1
  K  K18  1  0.82579155  0.44972670  0.77077277  1
  K  K19  1  0.17420845  0.22922723  0.55027330  1
  K  K20  1  0.17420845  0.55027330  0.22922723  1
  K  K21  1  0.82579155  0.77077277  0.44972670  1
  Ta  Ta22  1  0.62652503  0.88180894  0.88180894  1
  Ta  Ta23  1  0.37347497  0.11819106  0.11819106  1
  Ta  Ta24  1  0.36166683  0.95335275  0.78214961  1
  Ta  Ta25  1  0.63833317  0.21785039  0.04664725  1
  Ta  Ta26  1  0.63833317  0.04664725  0.21785039  1
  Ta  Ta27  1  0.36166683  0.78214961  0.95335275  1
