# generated using pymatgen
data_H18SO12
_symmetry_space_group_name_H-M   'P 1'
_cell_length_a   7.43991880
_cell_length_b   7.43991880
_cell_length_c   11.99662540
_cell_angle_alpha   108.04041802
_cell_angle_beta   108.04041800
_cell_angle_gamma   89.99015742
_symmetry_Int_Tables_number   1
_chemical_formula_structural   H18SO12
_chemical_formula_sum   'H36 S2 O24'
_cell_volume   596.98063075
_cell_formula_units_Z   2
loop_
 _symmetry_equiv_pos_site_id
 _symmetry_equiv_pos_as_xyz
  1  'x, y, z'
loop_
 _atom_site_type_symbol
 _atom_site_label
 _atom_site_symmetry_multiplicity
 _atom_site_fract_x
 _atom_site_fract_y
 _atom_site_fract_z
 _atom_site_occupancy
  H  H0  1  0.84326504  0.31489406  0.38726682  1
  H  H1  1  0.31489406  0.84326504  0.88726682  1
  H  H2  1  0.94682582  0.15833537  0.44663446  1
  H  H3  1  0.15833537  0.94682582  0.94663446  1
  H  H4  1  0.15677991  0.67754437  0.11257902  1
  H  H5  1  0.67754437  0.15677991  0.61257902  1
  H  H6  1  0.05309433  0.46184558  0.05320366  1
  H  H7  1  0.46184558  0.05309433  0.55320366  1
  H  H8  1  0.10339261  0.35380569  0.45808159  1
  H  H9  1  0.35380569  0.10339261  0.95808159  1
  H  H10  1  0.25024031  0.53757909  0.44658519  1
  H  H11  1  0.53757909  0.25024031  0.94658519  1
  H  H12  1  0.29358293  0.32097081  0.38793930  1
  H  H13  1  0.32097081  0.29358293  0.88793930  1
  H  H14  1  0.70672481  0.68328335  0.11234187  1
  H  H15  1  0.68328335  0.70672481  0.61234187  1
  H  H16  1  0.74990736  0.84143967  0.05366965  1
  H  H17  1  0.84143967  0.74990736  0.55366965  1
  H  H18  1  0.89642886  0.64623507  0.04197182  1
  H  H19  1  0.64623507  0.89642886  0.54197182  1
  H  H20  1  0.55172186  0.27496454  0.26244012  1
  H  H21  1  0.27496454  0.55172186  0.76244012  1
  H  H22  1  0.70820341  0.23544984  0.19367046  1
  H  H23  1  0.23544984  0.70820341  0.69367046  1
  H  H24  1  0.29172631  0.79163847  0.30632868  1
  H  H25  1  0.79163847  0.29172631  0.80632868  1
  H  H26  1  0.54763143  0.66526220  0.74594173  1
  H  H27  1  0.66526220  0.54763143  0.24594173  1
  H  H28  1  0.76129772  0.76675418  0.80686091  1
  H  H29  1  0.76675418  0.76129772  0.30686091  1
  H  H30  1  0.20454755  0.23331959  0.69322990  1
  H  H31  1  0.23331959  0.20454755  0.19322990  1
  H  H32  1  0.05167648  0.33481215  0.75409525  1
  H  H33  1  0.33481215  0.05167648  0.25409525  1
  H  H34  1  0.76253010  0.44828444  0.73762791  1
  H  H35  1  0.44828444  0.76253010  0.23762791  1
  O  O36  1  0.95076686  0.29867907  0.45904841  1
  O  O37  1  0.29867907  0.95076686  0.95904841  1
  O  O38  1  0.04930713  0.58976606  0.04078964  1
  O  O39  1  0.58976606  0.04930713  0.54078964  1
  O  O40  1  0.25827932  0.40990568  0.45938416  1
  O  O41  1  0.40990568  0.25827932  0.95938416  1
  O  O42  1  0.74202527  0.70097423  0.04089091  1
  O  O43  1  0.70097423  0.74202527  0.54089091  1
  O  O44  1  0.67813504  0.32614642  0.26474524  1
  O  O45  1  0.32614642  0.67813504  0.76474524  1
  O  O46  1  0.32185431  0.81139767  0.23529644  1
  O  O47  1  0.81139767  0.32185431  0.73529644  1
  O  O48  1  0.33849448  0.19083170  0.26453068  1
  O  O49  1  0.19083170  0.33849448  0.76453068  1
  O  O50  1  0.66163109  0.67635358  0.23549963  1
  O  O51  1  0.67635358  0.66163109  0.73549963  1
  O  O52  1  0.94886964  0.92731507  0.42077052  1
  O  O53  1  0.92731507  0.94886964  0.92077052  1
  O  O54  1  0.25666655  0.05088877  0.57906816  1
  O  O55  1  0.05088877  0.25666655  0.07906816  1
  O  O56  1  0.22212769  0.74275698  0.42091475  1
  O  O57  1  0.74275698  0.22212769  0.92091475  1
  O  O58  1  0.07216863  0.77778300  0.57921407  1
  O  O59  1  0.77778300  0.07216863  0.07921407  1
  S  S60  1  0.12499436  0.87466609  0.49997905  1
  S  S61  1  0.87466609  0.12499436  0.99997905  1
