# generated using pymatgen
data_Gd2B4O9
_symmetry_space_group_name_H-M   'P 1'
_cell_length_a   6.26296033
_cell_length_b   6.54632728
_cell_length_c   7.56489369
_cell_angle_alpha   102.05182299
_cell_angle_beta   96.96202874
_cell_angle_gamma   102.41425297
_symmetry_Int_Tables_number   1
_chemical_formula_structural   Gd2B4O9
_chemical_formula_sum   'Gd4 B8 O18'
_cell_volume   291.71399395
_cell_formula_units_Z   2
loop_
 _symmetry_equiv_pos_site_id
 _symmetry_equiv_pos_as_xyz
  1  'x, y, z'
loop_
 _atom_site_type_symbol
 _atom_site_label
 _atom_site_symmetry_multiplicity
 _atom_site_fract_x
 _atom_site_fract_y
 _atom_site_fract_z
 _atom_site_occupancy
  B  B0  1  0.99425060  0.14846533  0.18752242  1
  B  B1  1  0.00574940  0.85153467  0.81247758  1
  B  B2  1  0.37242773  0.64281688  0.34660990  1
  B  B3  1  0.62757227  0.35718312  0.65339010  1
  B  B4  1  0.27134796  0.66561886  0.01818914  1
  B  B5  1  0.72865204  0.33438114  0.98181086  1
  B  B6  1  0.33830130  0.32203948  0.07489275  1
  B  B7  1  0.66169870  0.67796052  0.92510725  1
  O  O8  1  0.57512203  0.81435571  0.44153712  1
  O  O9  1  0.23891538  0.73512922  0.20850324  1
  O  O10  1  0.77970857  0.40482393  0.52485801  1
  O  O11  1  0.22029143  0.59517607  0.47514199  1
  O  O12  1  0.76108462  0.26487078  0.79149676  1
  O  O13  1  0.85902454  0.28029115  0.13955536  1
  O  O14  1  0.54315717  0.53637215  0.74798011  1
  O  O15  1  0.45684283  0.46362785  0.25201989  1
  O  O16  1  0.77129321  0.56817911  0.03977155  1
  O  O17  1  0.22870679  0.43182089  0.96022845  1
  O  O18  1  0.81353815  0.86227969  0.87967568  1
  O  O19  1  0.18646185  0.13772031  0.12032432  1
  O  O20  1  0.06731328  0.95301216  0.67793447  1
  O  O21  1  0.93268672  0.04698784  0.32206553  1
  O  O22  1  0.49509684  0.21469869  0.98397152  1
  O  O23  1  0.50490316  0.78530131  0.01602848  1
  O  O24  1  0.14097546  0.71970885  0.86044464  1
  O  O25  1  0.42487797  0.18564429  0.55846288  1
  Gd  Gd26  1  0.45158271  0.90882148  0.71480409  1
  Gd  Gd27  1  0.54841729  0.09117852  0.28519591  1
  Gd  Gd28  1  0.11374705  0.32269919  0.64116862  1
  Gd  Gd29  1  0.88625295  0.67730081  0.35883138  1
