# generated using pymatgen
data_HoGaPd
_symmetry_space_group_name_H-M   'P 1'
_cell_length_a   4.48589357
_cell_length_b   6.90239545
_cell_length_c   7.63961827
_cell_angle_alpha   90.00000000
_cell_angle_beta   90.00000000
_cell_angle_gamma   90.00000000
_symmetry_Int_Tables_number   1
_chemical_formula_structural   HoGaPd
_chemical_formula_sum   'Ho4 Ga4 Pd4'
_cell_volume   236.54864318
_cell_formula_units_Z   4
loop_
 _symmetry_equiv_pos_site_id
 _symmetry_equiv_pos_as_xyz
  1  'x, y, z'
loop_
 _atom_site_type_symbol
 _atom_site_label
 _atom_site_symmetry_multiplicity
 _atom_site_fract_x
 _atom_site_fract_y
 _atom_site_fract_z
 _atom_site_occupancy
  Ho  Ho0  1  0.75000000  0.48449525  0.70075853  1
  Ho  Ho1  1  0.75000000  0.98449525  0.79924147  1
  Ho  Ho2  1  0.25000000  0.51550475  0.29924147  1
  Ho  Ho3  1  0.25000000  0.01550475  0.20075853  1
  Ga  Ga4  1  0.75000000  0.31717744  0.07845860  1
  Ga  Ga5  1  0.75000000  0.81717744  0.42154140  1
  Ga  Ga6  1  0.25000000  0.68282256  0.92154140  1
  Ga  Ga7  1  0.25000000  0.18282256  0.57845860  1
  Pd  Pd8  1  0.75000000  0.71504600  0.09245698  1
  Pd  Pd9  1  0.75000000  0.21504600  0.40754302  1
  Pd  Pd10  1  0.25000000  0.28495400  0.90754302  1
  Pd  Pd11  1  0.25000000  0.78495400  0.59245698  1
