# generated using pymatgen
data_La3TaO7
_symmetry_space_group_name_H-M   'P 1'
_cell_length_a   6.78563333
_cell_length_b   6.78563333
_cell_length_c   7.81800636
_cell_angle_alpha   90.00000000
_cell_angle_beta   90.00000000
_cell_angle_gamma   111.48393943
_symmetry_Int_Tables_number   1
_chemical_formula_structural   La3TaO7
_chemical_formula_sum   'La6 Ta2 O14'
_cell_volume   334.96746931
_cell_formula_units_Z   2
loop_
 _symmetry_equiv_pos_site_id
 _symmetry_equiv_pos_as_xyz
  1  'x, y, z'
loop_
 _atom_site_type_symbol
 _atom_site_label
 _atom_site_symmetry_multiplicity
 _atom_site_fract_x
 _atom_site_fract_y
 _atom_site_fract_z
 _atom_site_occupancy
  O  O0  1  0.10670676  0.84605162  0.75000000  1
  O  O1  1  0.89329324  0.15394838  0.25000000  1
  O  O2  1  0.84605162  0.10670676  0.75000000  1
  O  O3  1  0.15394838  0.89329324  0.25000000  1
  O  O4  1  0.18935044  0.43911735  0.96763483  1
  O  O5  1  0.81064956  0.56088265  0.46763483  1
  O  O6  1  0.43911735  0.18935044  0.53236517  1
  O  O7  1  0.56088265  0.81064956  0.03236517  1
  O  O8  1  0.43800779  0.43800779  0.25000000  1
  O  O9  1  0.56199221  0.56199221  0.75000000  1
  O  O10  1  0.43911735  0.18935044  0.96763483  1
  O  O11  1  0.56088265  0.81064956  0.46763483  1
  O  O12  1  0.18935044  0.43911735  0.53236517  1
  O  O13  1  0.81064956  0.56088265  0.03236517  1
  La  La14  1  0.00000000  0.00000000  0.00000000  1
  La  La15  1  0.00000000  0.00000000  0.50000000  1
  La  La16  1  0.93222147  0.47691187  0.75000000  1
  La  La17  1  0.06777853  0.52308813  0.25000000  1
  La  La18  1  0.47691187  0.93222147  0.75000000  1
  La  La19  1  0.52308813  0.06777853  0.25000000  1
  Ta  Ta20  1  0.50000000  0.50000000  0.00000000  1
  Ta  Ta21  1  0.50000000  0.50000000  0.50000000  1
