# generated using pymatgen
data_Nd3TaO7
_symmetry_space_group_name_H-M   'P 1'
_cell_length_a   6.68158448
_cell_length_b   6.68158448
_cell_length_c   7.74357138
_cell_angle_alpha   90.00000000
_cell_angle_beta   90.00000000
_cell_angle_gamma   109.65322459
_symmetry_Int_Tables_number   1
_chemical_formula_structural   Nd3TaO7
_chemical_formula_sum   'Nd6 Ta2 O14'
_cell_volume   325.56203553
_cell_formula_units_Z   2
loop_
 _symmetry_equiv_pos_site_id
 _symmetry_equiv_pos_as_xyz
  1  'x, y, z'
loop_
 _atom_site_type_symbol
 _atom_site_label
 _atom_site_symmetry_multiplicity
 _atom_site_fract_x
 _atom_site_fract_y
 _atom_site_fract_z
 _atom_site_occupancy
  O  O0  1  0.94287961  0.05712039  0.50000000  1
  O  O1  1  0.05712039  0.94287961  0.00000000  1
  O  O2  1  0.36489294  0.63510706  0.00000000  1
  O  O3  1  0.63510706  0.36489294  0.50000000  1
  O  O4  1  0.37057335  0.62942665  0.50000000  1
  O  O5  1  0.62942665  0.37057335  0.00000000  1
  O  O6  1  0.31361861  0.06897854  0.72054493  1
  O  O7  1  0.68638139  0.93102146  0.22054493  1
  O  O8  1  0.31336522  0.06832956  0.27944794  1
  O  O9  1  0.68663478  0.93167044  0.77944794  1
  O  O10  1  0.06832956  0.31336522  0.22055206  1
  O  O11  1  0.93167044  0.68663478  0.72055206  1
  O  O12  1  0.93102146  0.68638139  0.27945507  1
  O  O13  1  0.06897854  0.31361861  0.77945507  1
  Nd  Nd14  1  0.50129819  0.50129819  0.25000000  1
  Nd  Nd15  1  0.49870181  0.49870181  0.75000000  1
  Nd  Nd16  1  0.99925874  0.53528307  0.00003579  1
  Nd  Nd17  1  0.00074126  0.46471693  0.50003579  1
  Nd  Nd18  1  0.53528307  0.99925874  0.49996421  1
  Nd  Nd19  1  0.46471693  0.00074126  0.99996421  1
  Ta  Ta20  1  1.00024599  1.00024599  0.25000000  1
  Ta  Ta21  1  -0.00024599  -0.00024599  0.75000000  1
