# generated using pymatgen
data_Ho3TaO7
_symmetry_space_group_name_H-M   'P 1'
_cell_length_a   6.47675821
_cell_length_b   6.47675822
_cell_length_c   7.44058764
_cell_angle_alpha   90.00000000
_cell_angle_beta   90.00000000
_cell_angle_gamma   108.55044210
_symmetry_Int_Tables_number   1
_chemical_formula_structural   Ho3TaO7
_chemical_formula_sum   'Ho6 Ta2 O14'
_cell_volume   295.90416060
_cell_formula_units_Z   2
loop_
 _symmetry_equiv_pos_site_id
 _symmetry_equiv_pos_as_xyz
  1  'x, y, z'
loop_
 _atom_site_type_symbol
 _atom_site_label
 _atom_site_symmetry_multiplicity
 _atom_site_fract_x
 _atom_site_fract_y
 _atom_site_fract_z
 _atom_site_occupancy
  O  O0  1  0.93035933  0.06964067  0.50000000  1
  O  O1  1  0.06964067  0.93035933  0.00000000  1
  O  O2  1  0.35985308  0.64014692  0.00000000  1
  O  O3  1  0.64014692  0.35985308  0.50000000  1
  O  O4  1  0.37129096  0.62870904  0.50000000  1
  O  O5  1  0.62870904  0.37129096  0.00000000  1
  O  O6  1  0.32922061  0.08321326  0.72567098  1
  O  O7  1  0.67077939  0.91678674  0.22567098  1
  O  O8  1  0.30782551  0.04889486  0.29561152  1
  O  O9  1  0.69217449  0.95110514  0.79561152  1
  O  O10  1  0.04889486  0.30782551  0.20438848  1
  O  O11  1  0.95110514  0.69217449  0.70438848  1
  O  O12  1  0.91678674  0.67077939  0.27432902  1
  O  O13  1  0.08321326  0.32922061  0.77432902  1
  Ho  Ho14  1  0.53864291  0.53864291  0.25000000  1
  Ho  Ho15  1  0.46135709  0.46135709  0.75000000  1
  Ho  Ho16  1  1.00026050  0.53519489  0.99087923  1
  Ho  Ho17  1  -0.00026050  0.46480511  0.49087923  1
  Ho  Ho18  1  0.53519489  1.00026050  0.50912077  1
  Ho  Ho19  1  0.46480511  -0.00026050  0.00912077  1
  Ta  Ta20  1  0.00244338  0.00244338  0.25000000  1
  Ta  Ta21  1  0.99755662  0.99755662  0.75000000  1
