# generated using pymatgen
data_ErGaPd
_symmetry_space_group_name_H-M   'P 1'
_cell_length_a   4.45783546
_cell_length_b   6.87955739
_cell_length_c   7.64293941
_cell_angle_alpha   90.00000000
_cell_angle_beta   90.00000000
_cell_angle_gamma   90.00000000
_symmetry_Int_Tables_number   1
_chemical_formula_structural   ErGaPd
_chemical_formula_sum   'Er4 Ga4 Pd4'
_cell_volume   234.39316813
_cell_formula_units_Z   4
loop_
 _symmetry_equiv_pos_site_id
 _symmetry_equiv_pos_as_xyz
  1  'x, y, z'
loop_
 _atom_site_type_symbol
 _atom_site_label
 _atom_site_symmetry_multiplicity
 _atom_site_fract_x
 _atom_site_fract_y
 _atom_site_fract_z
 _atom_site_occupancy
  Ga  Ga0  1  0.25000000  0.82247197  0.07648680  1
  Ga  Ga1  1  0.75000000  0.17752803  0.92351320  1
  Ga  Ga2  1  0.25000000  0.32247197  0.42351320  1
  Ga  Ga3  1  0.75000000  0.67752803  0.57648680  1
  Pd  Pd4  1  0.75000000  0.77850313  0.90464346  1
  Pd  Pd5  1  0.25000000  0.22149687  0.09535654  1
  Pd  Pd6  1  0.75000000  0.27850313  0.59535654  1
  Pd  Pd7  1  0.25000000  0.72149687  0.40464346  1
  Er  Er8  1  0.25000000  0.48493244  0.80075699  1
  Er  Er9  1  0.75000000  0.51506756  0.19924301  1
  Er  Er10  1  0.25000000  0.98493244  0.69924301  1
  Er  Er11  1  0.75000000  0.01506756  0.30075699  1
