# generated using pymatgen
data_NiPO4
_symmetry_space_group_name_H-M   'P 1'
_cell_length_a   8.66542833
_cell_length_b   8.66542800
_cell_length_c   8.66542823
_cell_angle_alpha   108.40141789
_cell_angle_beta   108.40141720
_cell_angle_gamma   108.40141654
_symmetry_Int_Tables_number   1
_chemical_formula_structural   NiPO4
_chemical_formula_sum   'Ni6 P6 O24'
_cell_volume   519.79002122
_cell_formula_units_Z   6
loop_
 _symmetry_equiv_pos_site_id
 _symmetry_equiv_pos_as_xyz
  1  'x, y, z'
loop_
 _atom_site_type_symbol
 _atom_site_label
 _atom_site_symmetry_multiplicity
 _atom_site_fract_x
 _atom_site_fract_y
 _atom_site_fract_z
 _atom_site_occupancy
  Ni  Ni0  1  0.04633642  0.44709850  0.25280700  1
  Ni  Ni1  1  0.53379412  0.77050037  0.94428296  1
  Ni  Ni2  1  0.25280700  0.04633642  0.44709850  1
  Ni  Ni3  1  0.77050037  0.94428296  0.53379412  1
  Ni  Ni4  1  0.44709850  0.25280700  0.04633642  1
  Ni  Ni5  1  0.94428296  0.53379412  0.77050037  1
  O  O6  1  0.07867544  0.75247761  0.98757785  1
  O  O7  1  0.32521754  0.00655157  0.98365930  1
  O  O8  1  0.06777608  0.39436576  0.77465101  1
  O  O9  1  0.01217965  0.28342055  0.34770610  1
  O  O10  1  0.28084333  0.90740605  0.56812257  1
  O  O11  1  0.39944288  0.73093054  0.70955960  1
  O  O12  1  0.28960996  0.62390274  0.37210538  1
  O  O13  1  0.37210538  0.28960996  0.62390274  1
  O  O14  1  0.58431701  0.91870511  0.59897529  1
  O  O15  1  0.39436576  0.77465101  0.06777608  1
  O  O16  1  0.59897529  0.58431701  0.91870511  1
  O  O17  1  0.28342055  0.34770610  0.01217965  1
  O  O18  1  0.56812257  0.28084333  0.90740605  1
  O  O19  1  0.34770610  0.01217965  0.28342055  1
  O  O20  1  0.70955960  0.39944288  0.73093054  1
  O  O21  1  0.73093054  0.70955960  0.39944288  1
  O  O22  1  0.75247761  0.98757785  0.07867544  1
  O  O23  1  0.62390274  0.37210538  0.28960996  1
  O  O24  1  0.91870511  0.59897529  0.58431701  1
  O  O25  1  0.98365930  0.32521754  0.00655157  1
  O  O26  1  0.00655157  0.98365930  0.32521754  1
  O  O27  1  0.77465101  0.06777608  0.39436576  1
  O  O28  1  0.90740605  0.56812257  0.28084333  1
  O  O29  1  0.98757785  0.07867544  0.75247761  1
  P  P30  1  0.08067643  0.28623006  0.88813776  1
  P  P31  1  0.39108179  0.79579363  0.56279502  1
  P  P32  1  0.28623006  0.88813776  0.08067643  1
  P  P33  1  0.56279502  0.39108179  0.79579363  1
  P  P34  1  0.79579363  0.56279502  0.39108179  1
  P  P35  1  0.88813776  0.08067643  0.28623006  1
