# generated using pymatgen
data_La(SbO3)3
_symmetry_space_group_name_H-M   'P 1'
_cell_length_a   5.58800234
_cell_length_b   5.58800234
_cell_length_c   11.91255119
_cell_angle_alpha   90.00000000
_cell_angle_beta   90.00000000
_cell_angle_gamma   107.12595442
_symmetry_Int_Tables_number   1
_chemical_formula_structural   La(SbO3)3
_chemical_formula_sum   'La2 Sb6 O18'
_cell_volume   355.48495069
_cell_formula_units_Z   2
loop_
 _symmetry_equiv_pos_site_id
 _symmetry_equiv_pos_as_xyz
  1  'x, y, z'
loop_
 _atom_site_type_symbol
 _atom_site_label
 _atom_site_symmetry_multiplicity
 _atom_site_fract_x
 _atom_site_fract_y
 _atom_site_fract_z
 _atom_site_occupancy
  O  O0  1  0.94335709  0.05664291  0.25000000  1
  O  O1  1  0.05664291  0.94335709  0.75000000  1
  O  O2  1  0.10406289  0.89593711  0.07473466  1
  O  O3  1  0.89593711  0.10406289  0.57473466  1
  O  O4  1  0.89593711  0.10406289  0.92526534  1
  O  O5  1  0.10406289  0.89593711  0.42526534  1
  O  O6  1  0.33651589  0.66348411  0.88326095  1
  O  O7  1  0.66348411  0.33651589  0.38326095  1
  O  O8  1  0.41795676  0.19236331  0.59989706  1
  O  O9  1  0.58204324  0.80763669  0.09989706  1
  O  O10  1  0.19236331  0.41795676  0.40010294  1
  O  O11  1  0.80763669  0.58204324  0.90010294  1
  O  O12  1  0.58204324  0.80763669  0.40010294  1
  O  O13  1  0.41795676  0.19236331  0.90010294  1
  O  O14  1  0.80763669  0.58204324  0.59989706  1
  O  O15  1  0.19236331  0.41795676  0.09989706  1
  O  O16  1  0.33651589  0.66348411  0.61673905  1
  O  O17  1  0.66348411  0.33651589  0.11673905  1
  Sb  Sb18  1  0.12163748  0.87836252  0.90830023  1
  Sb  Sb19  1  0.87836252  0.12163748  0.40830023  1
  Sb  Sb20  1  0.87836252  0.12163748  0.09169977  1
  Sb  Sb21  1  0.12163748  0.87836252  0.59169977  1
  Sb  Sb22  1  0.50000000  0.50000000  0.00000000  1
  Sb  Sb23  1  0.50000000  0.50000000  0.50000000  1
  La  La24  1  0.75462562  0.24537438  0.75000000  1
  La  La25  1  0.24537438  0.75462562  0.25000000  1
