# generated using pymatgen
data_Na2In
_symmetry_space_group_name_H-M   'P 1'
_cell_length_a   8.26167286
_cell_length_b   8.26167310
_cell_length_c   11.74884925
_cell_angle_alpha   90.00000000
_cell_angle_beta   90.00000000
_cell_angle_gamma   114.67236929
_symmetry_Int_Tables_number   1
_chemical_formula_structural   Na2In
_chemical_formula_sum   'Na16 In8'
_cell_volume   728.71287370
_cell_formula_units_Z   8
loop_
 _symmetry_equiv_pos_site_id
 _symmetry_equiv_pos_as_xyz
  1  'x, y, z'
loop_
 _atom_site_type_symbol
 _atom_site_label
 _atom_site_symmetry_multiplicity
 _atom_site_fract_x
 _atom_site_fract_y
 _atom_site_fract_z
 _atom_site_occupancy
  In  In0  1  0.33081697  0.75778440  0.12851645  1
  In  In1  1  0.66918303  0.24221560  0.62851645  1
  In  In2  1  0.75778440  0.33081697  0.37148355  1
  In  In3  1  0.24221560  0.66918303  0.87148355  1
  In  In4  1  0.72712517  0.62349167  0.52659495  1
  In  In5  1  0.27287483  0.37650833  0.02659495  1
  In  In6  1  0.62349167  0.72712517  0.97340505  1
  In  In7  1  0.37650833  0.27287483  0.47340505  1
  Na  Na8  1  0.06622243  0.93377757  0.00000000  1
  Na  Na9  1  0.93377757  0.06622243  0.50000000  1
  Na  Na10  1  0.59068562  0.59068562  0.25000000  1
  Na  Na11  1  0.40931438  0.40931438  0.75000000  1
  Na  Na12  1  0.49783338  0.89427143  0.41863290  1
  Na  Na13  1  0.50216662  0.10572857  0.91863290  1
  Na  Na14  1  0.89427143  0.49783338  0.08136710  1
  Na  Na15  1  0.10572857  0.50216662  0.58136710  1
  Na  Na16  1  0.39697540  0.15272065  0.20780930  1
  Na  Na17  1  0.60302460  0.84727935  0.70780930  1
  Na  Na18  1  0.15272065  0.39697540  0.29219070  1
  Na  Na19  1  0.84727935  0.60302460  0.79219070  1
  Na  Na20  1  0.77535793  0.04999342  0.16724777  1
  Na  Na21  1  0.22464207  0.95000658  0.66724777  1
  Na  Na22  1  0.04999342  0.77535793  0.33275223  1
  Na  Na23  1  0.95000658  0.22464207  0.83275223  1
