# generated using pymatgen
data_LaSb5O12
_symmetry_space_group_name_H-M   'P 1'
_cell_length_a   7.02748248
_cell_length_b   7.02748247
_cell_length_c   7.02748247
_cell_angle_alpha   63.43965216
_cell_angle_beta   63.43965220
_cell_angle_gamma   63.43965213
_symmetry_Int_Tables_number   1
_chemical_formula_structural   LaSb5O12
_chemical_formula_sum   'La1 Sb5 O12'
_cell_volume   264.08058568
_cell_formula_units_Z   1
loop_
 _symmetry_equiv_pos_site_id
 _symmetry_equiv_pos_as_xyz
  1  'x, y, z'
loop_
 _atom_site_type_symbol
 _atom_site_label
 _atom_site_symmetry_multiplicity
 _atom_site_fract_x
 _atom_site_fract_y
 _atom_site_fract_z
 _atom_site_occupancy
  O  O0  1  0.65102411  0.04867463  0.65102411  1
  O  O1  1  0.04867463  0.65102411  0.65102411  1
  O  O2  1  0.65102411  0.65102411  0.04867463  1
  O  O3  1  0.34897589  0.95132537  0.34897589  1
  O  O4  1  0.95132537  0.34897589  0.34897589  1
  O  O5  1  0.34897589  0.34897589  0.95132537  1
  O  O6  1  0.61806721  0.24193322  0.24193322  1
  O  O7  1  0.24193322  0.61806721  0.24193322  1
  O  O8  1  0.24193322  0.24193322  0.61806721  1
  O  O9  1  0.75806678  0.38193279  0.75806678  1
  O  O10  1  0.75806678  0.75806678  0.38193279  1
  O  O11  1  0.38193279  0.75806678  0.75806678  1
  Sb  Sb12  1  0.50000000  0.00000000  0.50000000  1
  Sb  Sb13  1  0.00000000  0.50000000  0.50000000  1
  Sb  Sb14  1  0.50000000  0.50000000  0.00000000  1
  Sb  Sb15  1  0.84699691  0.84699691  0.84699691  1
  Sb  Sb16  1  0.15300309  0.15300309  0.15300309  1
  La  La17  1  0.50000000  0.50000000  0.50000000  1
