# generated using pymatgen
data_CeAgSn
_symmetry_space_group_name_H-M   'P 1'
_cell_length_a   4.85058848
_cell_length_b   4.85058848
_cell_length_c   7.51047821
_cell_angle_alpha   90.00000000
_cell_angle_beta   90.00000000
_cell_angle_gamma   119.99999998
_symmetry_Int_Tables_number   1
_chemical_formula_structural   CeAgSn
_chemical_formula_sum   'Ce2 Ag2 Sn2'
_cell_volume   153.03370206
_cell_formula_units_Z   2
loop_
 _symmetry_equiv_pos_site_id
 _symmetry_equiv_pos_as_xyz
  1  'x, y, z'
loop_
 _atom_site_type_symbol
 _atom_site_label
 _atom_site_symmetry_multiplicity
 _atom_site_fract_x
 _atom_site_fract_y
 _atom_site_fract_z
 _atom_site_occupancy
  Ag  Ag0  1  0.66666667  0.33333333  0.52909967  1
  Ag  Ag1  1  0.33333333  0.66666667  0.02909967  1
  Sn  Sn2  1  0.33333333  0.66666667  0.45757801  1
  Sn  Sn3  1  0.66666667  0.33333333  0.95757801  1
  Ce  Ce4  1  0.00000000  0.00000000  0.73132232  1
  Ce  Ce5  1  0.00000000  0.00000000  0.23132232  1
