# generated using pymatgen
data_Ho3(CuSi)4
_symmetry_space_group_name_H-M   'P 1'
_cell_length_a   4.11647005
_cell_length_b   6.53442358
_cell_length_c   7.83797055
_cell_angle_alpha   114.63224410
_cell_angle_beta   105.22427158
_cell_angle_gamma   89.99999997
_symmetry_Int_Tables_number   1
_chemical_formula_structural   Ho3(CuSi)4
_chemical_formula_sum   'Ho3 Si4 Cu4'
_cell_volume   183.47522055
_cell_formula_units_Z   1
loop_
 _symmetry_equiv_pos_site_id
 _symmetry_equiv_pos_as_xyz
  1  'x, y, z'
loop_
 _atom_site_type_symbol
 _atom_site_label
 _atom_site_symmetry_multiplicity
 _atom_site_fract_x
 _atom_site_fract_y
 _atom_site_fract_z
 _atom_site_occupancy
  Si  Si0  1  0.49999312  0.81506647  0.99998624  1
  Si  Si1  1  0.50000688  0.18493353  0.00001376  1
  Si  Si2  1  0.78377267  0.28379832  0.56754535  1
  Si  Si3  1  0.21622733  0.71620168  0.43245465  1
  Cu  Cu4  1  0.33116514  0.52219444  0.66233028  1
  Cu  Cu5  1  0.66882839  0.85980051  0.33765677  1
  Cu  Cu6  1  0.33117161  0.14019949  0.66234323  1
  Cu  Cu7  1  0.66883486  0.47780556  0.33766972  1
  Ho  Ho8  1  0.87037737  0.87038989  0.74075475  1
  Ho  Ho9  1  0.12962263  0.12961011  0.25924525  1
  Ho  Ho10  1  0.00000000  0.50000000  0.00000000  1
