# generated using pymatgen
data_TbGe2Pd
_symmetry_space_group_name_H-M   'P 1'
_cell_length_a   4.34111762
_cell_length_b   8.81978686
_cell_length_c   9.61430907
_cell_angle_alpha   117.29859748
_cell_angle_beta   103.04777102
_cell_angle_gamma   90.00000006
_symmetry_Int_Tables_number   1
_chemical_formula_structural   TbGe2Pd
_chemical_formula_sum   'Tb4 Ge8 Pd4'
_cell_volume   316.38017043
_cell_formula_units_Z   4
loop_
 _symmetry_equiv_pos_site_id
 _symmetry_equiv_pos_as_xyz
  1  'x, y, z'
loop_
 _atom_site_type_symbol
 _atom_site_label
 _atom_site_symmetry_multiplicity
 _atom_site_fract_x
 _atom_site_fract_y
 _atom_site_fract_z
 _atom_site_occupancy
  Ge  Ge0  1  0.19780329  0.34755199  0.39560657  1
  Ge  Ge1  1  0.80219671  0.65244801  0.60439343  1
  Ge  Ge2  1  0.80219848  0.95196443  0.60439696  1
  Ge  Ge3  1  0.19780152  0.04803557  0.39560304  1
  Ge  Ge4  1  0.57403940  0.57406635  0.14807879  1
  Ge  Ge5  1  0.42541070  0.92537290  0.85082140  1
  Ge  Ge6  1  0.57458930  0.07462710  0.14917860  1
  Ge  Ge7  1  0.42596060  0.42593365  0.85192121  1
  Pd  Pd8  1  0.35236135  0.60209790  0.70472270  1
  Pd  Pd9  1  0.64762976  0.89740643  0.29525953  1
  Pd  Pd10  1  0.64763865  0.39790210  0.29527730  1
  Pd  Pd11  1  0.35237024  0.10259357  0.70474047  1
  Tb  Tb12  1  -0.00000367  0.73999732  -0.00000734  1
  Tb  Tb13  1  1.00000367  0.26000268  1.00000734  1
  Tb  Tb14  1  0.20183644  0.70185169  0.40367287  1
  Tb  Tb15  1  0.79816356  0.29814831  0.59632713  1
