# generated using pymatgen
data_Dy5Bi3
_symmetry_space_group_name_H-M   'P 1'
_cell_length_a   8.26615242
_cell_length_b   9.54730245
_cell_length_c   12.04979016
_cell_angle_alpha   90.00000000
_cell_angle_beta   90.00000000
_cell_angle_gamma   90.00000000
_symmetry_Int_Tables_number   1
_chemical_formula_structural   Dy5Bi3
_chemical_formula_sum   'Dy20 Bi12'
_cell_volume   950.96289942
_cell_formula_units_Z   4
loop_
 _symmetry_equiv_pos_site_id
 _symmetry_equiv_pos_as_xyz
  1  'x, y, z'
loop_
 _atom_site_type_symbol
 _atom_site_label
 _atom_site_symmetry_multiplicity
 _atom_site_fract_x
 _atom_site_fract_y
 _atom_site_fract_z
 _atom_site_occupancy
  Dy  Dy0  1  0.35257622  0.75000000  0.21481764  1
  Dy  Dy1  1  0.85257622  0.75000000  0.28518236  1
  Dy  Dy2  1  0.64742378  0.25000000  0.78518236  1
  Dy  Dy3  1  0.14742378  0.25000000  0.71481764  1
  Dy  Dy4  1  0.69292607  0.56353026  0.05830078  1
  Dy  Dy5  1  0.19292607  0.93646974  0.44169922  1
  Dy  Dy6  1  0.30707393  0.06353026  0.94169922  1
  Dy  Dy7  1  0.80707393  0.43646974  0.55830078  1
  Dy  Dy8  1  0.30707393  0.43646974  0.94169922  1
  Dy  Dy9  1  0.80707393  0.06353026  0.55830078  1
  Dy  Dy10  1  0.69292607  0.93646974  0.05830078  1
  Dy  Dy11  1  0.19292607  0.56353026  0.44169922  1
  Dy  Dy12  1  0.47584604  0.25000000  0.48839433  1
  Dy  Dy13  1  0.97584604  0.25000000  0.01160567  1
  Dy  Dy14  1  0.52415396  0.75000000  0.51160567  1
  Dy  Dy15  1  0.02415396  0.75000000  0.98839433  1
  Dy  Dy16  1  0.31269593  0.25000000  0.21879475  1
  Dy  Dy17  1  0.81269593  0.25000000  0.28120525  1
  Dy  Dy18  1  0.68730407  0.75000000  0.78120525  1
  Dy  Dy19  1  0.18730407  0.75000000  0.71879475  1
  Bi  Bi20  1  0.40740626  0.75000000  0.95666363  1
  Bi  Bi21  1  0.90740626  0.75000000  0.54333637  1
  Bi  Bi22  1  0.59259374  0.25000000  0.04333637  1
  Bi  Bi23  1  0.09259374  0.25000000  0.45666363  1
  Bi  Bi24  1  0.56447045  0.99557554  0.32531014  1
  Bi  Bi25  1  0.06447045  0.50442446  0.17468986  1
  Bi  Bi26  1  0.43552955  0.49557554  0.67468986  1
  Bi  Bi27  1  0.93552955  0.00442446  0.82531014  1
  Bi  Bi28  1  0.43552955  0.00442446  0.67468986  1
  Bi  Bi29  1  0.93552955  0.49557554  0.82531014  1
  Bi  Bi30  1  0.56447045  0.50442446  0.32531014  1
  Bi  Bi31  1  0.06447045  0.99557554  0.17468986  1
