# generated using pymatgen
data_Tb5Bi3
_symmetry_space_group_name_H-M   'P 1'
_cell_length_a   8.30224470
_cell_length_b   9.58712262
_cell_length_c   12.11178189
_cell_angle_alpha   90.00000000
_cell_angle_beta   90.00000000
_cell_angle_gamma   90.00000000
_symmetry_Int_Tables_number   1
_chemical_formula_structural   Tb5Bi3
_chemical_formula_sum   'Tb20 Bi12'
_cell_volume   964.03289459
_cell_formula_units_Z   4
loop_
 _symmetry_equiv_pos_site_id
 _symmetry_equiv_pos_as_xyz
  1  'x, y, z'
loop_
 _atom_site_type_symbol
 _atom_site_label
 _atom_site_symmetry_multiplicity
 _atom_site_fract_x
 _atom_site_fract_y
 _atom_site_fract_z
 _atom_site_occupancy
  Tb  Tb0  1  0.35257725  0.75000000  0.21446191  1
  Tb  Tb1  1  0.85257725  0.75000000  0.28553809  1
  Tb  Tb2  1  0.64742275  0.25000000  0.78553809  1
  Tb  Tb3  1  0.14742275  0.25000000  0.71446191  1
  Tb  Tb4  1  0.69355946  0.56266858  0.05797048  1
  Tb  Tb5  1  0.19355946  0.93733142  0.44202952  1
  Tb  Tb6  1  0.30644054  0.06266858  0.94202952  1
  Tb  Tb7  1  0.80644054  0.43733142  0.55797048  1
  Tb  Tb8  1  0.30644054  0.43733142  0.94202952  1
  Tb  Tb9  1  0.80644054  0.06266858  0.55797048  1
  Tb  Tb10  1  0.69355946  0.93733142  0.05797048  1
  Tb  Tb11  1  0.19355946  0.56266858  0.44202952  1
  Tb  Tb12  1  0.47542816  0.25000000  0.48826871  1
  Tb  Tb13  1  0.97542816  0.25000000  0.01173129  1
  Tb  Tb14  1  0.52457184  0.75000000  0.51173129  1
  Tb  Tb15  1  0.02457184  0.75000000  0.98826871  1
  Tb  Tb16  1  0.31317027  0.25000000  0.21953028  1
  Tb  Tb17  1  0.81317027  0.25000000  0.28046972  1
  Tb  Tb18  1  0.68682973  0.75000000  0.78046972  1
  Tb  Tb19  1  0.18682973  0.75000000  0.71953028  1
  Bi  Bi20  1  0.40859913  0.75000000  0.95694263  1
  Bi  Bi21  1  0.90859913  0.75000000  0.54305737  1
  Bi  Bi22  1  0.59140087  0.25000000  0.04305737  1
  Bi  Bi23  1  0.09140087  0.25000000  0.45694263  1
  Bi  Bi24  1  0.56475851  0.99550176  0.32528223  1
  Bi  Bi25  1  0.06475851  0.50449824  0.17471777  1
  Bi  Bi26  1  0.43524149  0.49550176  0.67471777  1
  Bi  Bi27  1  0.93524149  0.00449824  0.82528223  1
  Bi  Bi28  1  0.43524149  0.00449824  0.67471777  1
  Bi  Bi29  1  0.93524149  0.49550176  0.82528223  1
  Bi  Bi30  1  0.56475851  0.50449824  0.32528223  1
  Bi  Bi31  1  0.06475851  0.99550176  0.17471777  1
