# generated using pymatgen
data_TbAgPb
_symmetry_space_group_name_H-M   'P 1'
_cell_length_a   4.83676956
_cell_length_b   4.83676956
_cell_length_c   7.54055462
_cell_angle_alpha   90.00000000
_cell_angle_beta   90.00000000
_cell_angle_gamma   120.00000001
_symmetry_Int_Tables_number   1
_chemical_formula_structural   TbAgPb
_chemical_formula_sum   'Tb2 Ag2 Pb2'
_cell_volume   152.77233444
_cell_formula_units_Z   2
loop_
 _symmetry_equiv_pos_site_id
 _symmetry_equiv_pos_as_xyz
  1  'x, y, z'
loop_
 _atom_site_type_symbol
 _atom_site_label
 _atom_site_symmetry_multiplicity
 _atom_site_fract_x
 _atom_site_fract_y
 _atom_site_fract_z
 _atom_site_occupancy
  Ag  Ag0  1  0.66666667  0.33333333  0.31828818  1
  Ag  Ag1  1  0.33333333  0.66666667  0.81828818  1
  Tb  Tb2  1  0.00000000  0.00000000  0.00339704  1
  Tb  Tb3  1  0.00000000  0.00000000  0.50339704  1
  Pb  Pb4  1  0.33333333  0.66666667  0.22351478  1
  Pb  Pb5  1  0.66666667  0.33333333  0.72351478  1
