# generated using pymatgen
data_K3PbAu5
_symmetry_space_group_name_H-M   'P 1'
_cell_length_a   5.77137274
_cell_length_b   8.62975554
_cell_length_c   11.28285693
_cell_angle_alpha   112.47545197
_cell_angle_beta   104.80984249
_cell_angle_gamma   90.01870156
_symmetry_Int_Tables_number   1
_chemical_formula_structural   K3PbAu5
_chemical_formula_sum   'K6 Pb2 Au10'
_cell_volume   498.98228642
_cell_formula_units_Z   2
loop_
 _symmetry_equiv_pos_site_id
 _symmetry_equiv_pos_as_xyz
  1  'x, y, z'
loop_
 _atom_site_type_symbol
 _atom_site_label
 _atom_site_symmetry_multiplicity
 _atom_site_fract_x
 _atom_site_fract_y
 _atom_site_fract_z
 _atom_site_occupancy
  K  K0  1  0.75000737  0.37551907  0.50000611  1
  K  K1  1  0.24999263  0.62448093  0.49999389  1
  K  K2  1  0.08568538  0.70914801  0.17137563  1
  K  K3  1  0.58569343  0.96223006  0.17137941  1
  K  K4  1  0.91431462  0.29085199  0.82862437  1
  K  K5  1  0.41430657  0.03776994  0.82862059  1
  Pb  Pb6  1  0.75000785  0.91756985  0.49999508  1
  Pb  Pb7  1  0.24999215  0.08243015  0.50000492  1
  Au  Au8  1  0.64392131  0.60641721  0.28787054  1
  Au  Au9  1  0.35607869  0.39358279  0.71212946  1
  Au  Au10  1  0.50000000  0.50000000  0.00000000  1
  Au  Au11  1  0.14393914  0.18146301  0.28787653  1
  Au  Au12  1  0.18479920  0.68479680  0.86958576  1
  Au  Au13  1  0.85606086  0.81853699  0.71212347  1
  Au  Au14  1  0.81520080  0.31520320  0.13041424  1
  Au  Au15  1  0.68480566  0.68480394  0.86959785  1
  Au  Au16  1  0.00000000  0.00000000  0.00000000  1
  Au  Au17  1  0.31519434  0.31519606  0.13040215  1
