# generated using pymatgen
data_Ca3(GaPt)2
_symmetry_space_group_name_H-M   'P 1'
_cell_length_a   5.80857676
_cell_length_b   7.92890988
_cell_length_c   13.91376711
_cell_angle_alpha   90.00000000
_cell_angle_beta   90.00000000
_cell_angle_gamma   90.00000000
_symmetry_Int_Tables_number   1
_chemical_formula_structural   Ca3(GaPt)2
_chemical_formula_sum   'Ca12 Ga8 Pt8'
_cell_volume   640.80802872
_cell_formula_units_Z   4
loop_
 _symmetry_equiv_pos_site_id
 _symmetry_equiv_pos_as_xyz
  1  'x, y, z'
loop_
 _atom_site_type_symbol
 _atom_site_label
 _atom_site_symmetry_multiplicity
 _atom_site_fract_x
 _atom_site_fract_y
 _atom_site_fract_z
 _atom_site_occupancy
  Ca  Ca0  1  0.14302590  0.60686523  0.09843846  1
  Ca  Ca1  1  0.14302590  0.89313477  0.90156154  1
  Ca  Ca2  1  0.85697410  0.10686523  0.40156154  1
  Ca  Ca3  1  0.85697410  0.39313477  0.59843846  1
  Ca  Ca4  1  0.85697410  0.39313477  0.90156154  1
  Ca  Ca5  1  0.85697410  0.10686523  0.09843846  1
  Ca  Ca6  1  0.14302590  0.89313477  0.59843846  1
  Ca  Ca7  1  0.14302590  0.60686523  0.40156154  1
  Ca  Ca8  1  0.37092428  0.25727675  0.25000000  1
  Ca  Ca9  1  0.37092428  0.24272325  0.75000000  1
  Ca  Ca10  1  0.62907572  0.75727675  0.25000000  1
  Ca  Ca11  1  0.62907572  0.74272325  0.75000000  1
  Ga  Ga12  1  0.37804318  0.25000000  0.00000000  1
  Ga  Ga13  1  0.62195682  0.75000000  0.50000000  1
  Ga  Ga14  1  0.62195682  0.75000000  0.00000000  1
  Ga  Ga15  1  0.37804318  0.25000000  0.50000000  1
  Ga  Ga16  1  0.85814193  0.40835182  0.25000000  1
  Ga  Ga17  1  0.85814193  0.09164818  0.75000000  1
  Ga  Ga18  1  0.14185807  0.90835182  0.25000000  1
  Ga  Ga19  1  0.14185807  0.59164818  0.75000000  1
  Pt  Pt20  1  0.63900908  0.46846743  0.09408049  1
  Pt  Pt21  1  0.63900908  0.03153257  0.90591951  1
  Pt  Pt22  1  0.36099092  0.96846743  0.40591951  1
  Pt  Pt23  1  0.36099092  0.53153257  0.59408049  1
  Pt  Pt24  1  0.36099092  0.53153257  0.90591951  1
  Pt  Pt25  1  0.36099092  0.96846743  0.09408049  1
  Pt  Pt26  1  0.63900908  0.03153257  0.59408049  1
  Pt  Pt27  1  0.63900908  0.46846743  0.40591951  1
