# generated using pymatgen
data_Er4(Al8Pt3)3
_symmetry_space_group_name_H-M   'P 1'
_cell_length_a   7.52154728
_cell_length_b   7.52208909
_cell_length_c   13.14464740
_cell_angle_alpha   84.59438211
_cell_angle_beta   79.03773274
_cell_angle_gamma   60.17463100
_symmetry_Int_Tables_number   1
_chemical_formula_structural   Er4(Al8Pt3)3
_chemical_formula_sum   'Er4 Al24 Pt9'
_cell_volume   633.41567598
_cell_formula_units_Z   1
loop_
 _symmetry_equiv_pos_site_id
 _symmetry_equiv_pos_as_xyz
  1  'x, y, z'
loop_
 _atom_site_type_symbol
 _atom_site_label
 _atom_site_symmetry_multiplicity
 _atom_site_fract_x
 _atom_site_fract_y
 _atom_site_fract_z
 _atom_site_occupancy
  Al  Al0  1  0.80756810  0.13086486  0.18454043  1
  Al  Al1  1  0.19243190  0.86913514  0.81545957  1
  Al  Al2  1  0.98219258  0.33406335  0.05599511  1
  Al  Al3  1  0.01780742  0.66593665  0.94400489  1
  Al  Al4  1  0.39786579  0.33628084  0.18315926  1
  Al  Al5  1  0.60213421  0.66371916  0.81684074  1
  Al  Al6  1  0.88272812  0.33477035  0.32885739  1
  Al  Al7  1  0.11727188  0.66522965  0.67114261  1
  Al  Al8  1  0.60289708  0.54215453  0.18372635  1
  Al  Al9  1  0.39710292  0.45784547  0.81627365  1
  Al  Al10  1  0.22993468  0.66031266  0.33029598  1
  Al  Al11  1  0.77006532  0.33968734  0.66970402  1
  Al  Al12  1  0.85308232  0.66693106  0.44115721  1
  Al  Al13  1  0.18560765  0.00090998  0.44116356  1
  Al  Al14  1  0.81439235  0.99909002  0.55883644  1
  Al  Al15  1  0.35262040  0.00090556  0.94396419  1
  Al  Al16  1  0.64737960  0.99909444  0.05603581  1
  Al  Al17  1  0.55608527  0.00628759  0.32862144  1
  Al  Al18  1  0.44391473  0.99371241  0.67137856  1
  Al  Al19  1  0.52082834  0.33281164  0.43829475  1
  Al  Al20  1  0.47917166  0.66718836  0.56170525  1
  Al  Al21  1  0.68380614  0.33164138  0.95261174  1
  Al  Al22  1  0.31619386  0.66835862  0.04738826  1
  Al  Al23  1  0.14691768  0.33306894  0.55884279  1
  Er  Er24  1  0.73274007  0.00098391  0.80770805  1
  Er  Er25  1  0.26725993  0.99901609  0.19229195  1
  Er  Er26  1  0.06235639  0.33180578  0.80777727  1
  Er  Er27  1  0.93764361  0.66819422  0.19222273  1
  Pt  Pt28  1  0.32841964  0.32865836  0.99992412  1
  Pt  Pt29  1  0.54569209  0.67541277  0.36261944  1
  Pt  Pt30  1  0.45430791  0.32458723  0.63738056  1
  Pt  Pt31  1  0.88804904  0.99149412  0.36098397  1
  Pt  Pt32  1  0.11195096  0.00850588  0.63901603  1
  Pt  Pt33  1  0.67158036  0.67134164  0.00007588  1
  Pt  Pt34  1  0.20408798  0.33339013  0.36098414  1
  Pt  Pt35  1  0.79591202  0.66660987  0.63901586  1
  Pt  Pt36  1  0.00000000  0.00000000  0.00000000  1
