# generated using pymatgen
data_Ho5Bi3
_symmetry_space_group_name_H-M   'P 1'
_cell_length_a   8.22917478
_cell_length_b   9.51159570
_cell_length_c   11.99667633
_cell_angle_alpha   90.00000000
_cell_angle_beta   90.00000000
_cell_angle_gamma   90.00000000
_symmetry_Int_Tables_number   1
_chemical_formula_structural   Ho5Bi3
_chemical_formula_sum   'Ho20 Bi12'
_cell_volume   939.01084919
_cell_formula_units_Z   4
loop_
 _symmetry_equiv_pos_site_id
 _symmetry_equiv_pos_as_xyz
  1  'x, y, z'
loop_
 _atom_site_type_symbol
 _atom_site_label
 _atom_site_symmetry_multiplicity
 _atom_site_fract_x
 _atom_site_fract_y
 _atom_site_fract_z
 _atom_site_occupancy
  Ho  Ho0  1  0.35383943  0.75000000  0.21606450  1
  Ho  Ho1  1  0.85383943  0.75000000  0.28393550  1
  Ho  Ho2  1  0.64616057  0.25000000  0.78393550  1
  Ho  Ho3  1  0.14616057  0.25000000  0.71606450  1
  Ho  Ho4  1  0.69208216  0.56415683  0.05898698  1
  Ho  Ho5  1  0.19208216  0.93584317  0.44101302  1
  Ho  Ho6  1  0.30791784  0.06415683  0.94101302  1
  Ho  Ho7  1  0.80791784  0.43584317  0.55898698  1
  Ho  Ho8  1  0.30791784  0.43584317  0.94101302  1
  Ho  Ho9  1  0.80791784  0.06415683  0.55898698  1
  Ho  Ho10  1  0.69208216  0.93584317  0.05898698  1
  Ho  Ho11  1  0.19208216  0.56415683  0.44101302  1
  Ho  Ho12  1  0.47711526  0.25000000  0.48906425  1
  Ho  Ho13  1  0.97711526  0.25000000  0.01093575  1
  Ho  Ho14  1  0.52288474  0.75000000  0.51093575  1
  Ho  Ho15  1  0.02288474  0.75000000  0.98906425  1
  Ho  Ho16  1  0.31482202  0.25000000  0.21811972  1
  Ho  Ho17  1  0.81482202  0.25000000  0.28188028  1
  Ho  Ho18  1  0.68517798  0.75000000  0.78188028  1
  Ho  Ho19  1  0.18517798  0.75000000  0.71811972  1
  Bi  Bi20  1  0.40542299  0.75000000  0.95747618  1
  Bi  Bi21  1  0.90542299  0.75000000  0.54252382  1
  Bi  Bi22  1  0.59457701  0.25000000  0.04252382  1
  Bi  Bi23  1  0.09457701  0.25000000  0.45747618  1
  Bi  Bi24  1  0.56582830  0.99629938  0.32568864  1
  Bi  Bi25  1  0.06582830  0.50370062  0.17431136  1
  Bi  Bi26  1  0.43417170  0.49629938  0.67431136  1
  Bi  Bi27  1  0.93417170  0.00370062  0.82568864  1
  Bi  Bi28  1  0.43417170  0.00370062  0.67431136  1
  Bi  Bi29  1  0.93417170  0.49629938  0.82568864  1
  Bi  Bi30  1  0.56582830  0.50370062  0.32568864  1
  Bi  Bi31  1  0.06582830  0.99629938  0.17431136  1
