# generated using pymatgen
data_Er5Bi3
_symmetry_space_group_name_H-M   'P 1'
_cell_length_a   8.18823340
_cell_length_b   9.46234850
_cell_length_c   11.97001762
_cell_angle_alpha   90.00000000
_cell_angle_beta   90.00000000
_cell_angle_gamma   90.00000000
_symmetry_Int_Tables_number   1
_chemical_formula_structural   Er5Bi3
_chemical_formula_sum   'Er20 Bi12'
_cell_volume   927.43598402
_cell_formula_units_Z   4
loop_
 _symmetry_equiv_pos_site_id
 _symmetry_equiv_pos_as_xyz
  1  'x, y, z'
loop_
 _atom_site_type_symbol
 _atom_site_label
 _atom_site_symmetry_multiplicity
 _atom_site_fract_x
 _atom_site_fract_y
 _atom_site_fract_z
 _atom_site_occupancy
  Er  Er0  1  0.97369192  0.25000000  0.01043609  1
  Er  Er1  1  0.47369192  0.25000000  0.48956391  1
  Er  Er2  1  0.02630808  0.75000000  0.98956391  1
  Er  Er3  1  0.52630808  0.75000000  0.51043609  1
  Er  Er4  1  0.81369170  0.25000000  0.28097608  1
  Er  Er5  1  0.31369170  0.25000000  0.21902392  1
  Er  Er6  1  0.18630830  0.75000000  0.71902392  1
  Er  Er7  1  0.68630830  0.75000000  0.78097608  1
  Er  Er8  1  0.69402717  0.56355298  0.06037875  1
  Er  Er9  1  0.19402717  0.93644702  0.43962125  1
  Er  Er10  1  0.30597283  0.06355298  0.93962125  1
  Er  Er11  1  0.80597283  0.43644702  0.56037875  1
  Er  Er12  1  0.30597283  0.43644702  0.93962125  1
  Er  Er13  1  0.80597283  0.06355298  0.56037875  1
  Er  Er14  1  0.69402717  0.93644702  0.06037875  1
  Er  Er15  1  0.19402717  0.56355298  0.43962125  1
  Er  Er16  1  0.64556458  0.25000000  0.78489300  1
  Er  Er17  1  0.14556458  0.25000000  0.71510700  1
  Er  Er18  1  0.35443542  0.75000000  0.21510700  1
  Er  Er19  1  0.85443542  0.75000000  0.28489300  1
  Bi  Bi20  1  0.56604956  0.99676856  0.32609097  1
  Bi  Bi21  1  0.06604956  0.50323144  0.17390903  1
  Bi  Bi22  1  0.43395044  0.49676856  0.67390903  1
  Bi  Bi23  1  0.93395044  0.00323144  0.82609097  1
  Bi  Bi24  1  0.43395044  0.00323144  0.67390903  1
  Bi  Bi25  1  0.93395044  0.49676856  0.82609097  1
  Bi  Bi26  1  0.56604956  0.50323144  0.32609097  1
  Bi  Bi27  1  0.06604956  0.99676856  0.17390903  1
  Bi  Bi28  1  0.58983140  0.25000000  0.04225328  1
  Bi  Bi29  1  0.08983140  0.25000000  0.45774672  1
  Bi  Bi30  1  0.41016860  0.75000000  0.95774672  1
  Bi  Bi31  1  0.91016860  0.75000000  0.54225328  1
