# generated using pymatgen
data_Ca3(GaPd)2
_symmetry_space_group_name_H-M   'P 1'
_cell_length_a   5.82647039
_cell_length_b   7.97073016
_cell_length_c   13.97464491
_cell_angle_alpha   90.00000000
_cell_angle_beta   90.00000000
_cell_angle_gamma   90.00000000
_symmetry_Int_Tables_number   1
_chemical_formula_structural   Ca3(GaPd)2
_chemical_formula_sum   'Ca12 Ga8 Pd8'
_cell_volume   648.99960430
_cell_formula_units_Z   4
loop_
 _symmetry_equiv_pos_site_id
 _symmetry_equiv_pos_as_xyz
  1  'x, y, z'
loop_
 _atom_site_type_symbol
 _atom_site_label
 _atom_site_symmetry_multiplicity
 _atom_site_fract_x
 _atom_site_fract_y
 _atom_site_fract_z
 _atom_site_occupancy
  Ca  Ca0  1  0.14029489  0.60639335  0.09941013  1
  Ca  Ca1  1  0.14029489  0.89360665  0.90058987  1
  Ca  Ca2  1  0.85970511  0.10639335  0.40058987  1
  Ca  Ca3  1  0.85970511  0.39360665  0.59941013  1
  Ca  Ca4  1  0.85970511  0.39360665  0.90058987  1
  Ca  Ca5  1  0.85970511  0.10639335  0.09941013  1
  Ca  Ca6  1  0.14029489  0.89360665  0.59941013  1
  Ca  Ca7  1  0.14029489  0.60639335  0.40058987  1
  Ca  Ca8  1  0.36545387  0.25610160  0.25000000  1
  Ca  Ca9  1  0.36545387  0.24389840  0.75000000  1
  Ca  Ca10  1  0.63454613  0.75610160  0.25000000  1
  Ca  Ca11  1  0.63454613  0.74389840  0.75000000  1
  Ga  Ga12  1  0.37158302  0.25000000  0.00000000  1
  Ga  Ga13  1  0.62841698  0.75000000  0.50000000  1
  Ga  Ga14  1  0.62841698  0.75000000  0.00000000  1
  Ga  Ga15  1  0.37158302  0.25000000  0.50000000  1
  Ga  Ga16  1  0.85316923  0.40569211  0.25000000  1
  Ga  Ga17  1  0.85316923  0.09430789  0.75000000  1
  Ga  Ga18  1  0.14683077  0.90569211  0.25000000  1
  Ga  Ga19  1  0.14683077  0.59430789  0.75000000  1
  Pd  Pd20  1  0.63337776  0.46737194  0.09210306  1
  Pd  Pd21  1  0.63337776  0.03262806  0.90789694  1
  Pd  Pd22  1  0.36662224  0.96737194  0.40789694  1
  Pd  Pd23  1  0.36662224  0.53262806  0.59210306  1
  Pd  Pd24  1  0.36662224  0.53262806  0.90789694  1
  Pd  Pd25  1  0.36662224  0.96737194  0.09210306  1
  Pd  Pd26  1  0.63337776  0.03262806  0.59210306  1
  Pd  Pd27  1  0.63337776  0.46737194  0.40789694  1
