# generated using pymatgen
data_Rb5Hg19
_symmetry_space_group_name_H-M   'P 1'
_cell_length_a   10.27602617
_cell_length_b   10.27602616
_cell_length_c   10.27602616
_cell_angle_alpha   106.51107615
_cell_angle_beta   106.51107614
_cell_angle_gamma   115.56905495
_symmetry_Int_Tables_number   1
_chemical_formula_structural   Rb5Hg19
_chemical_formula_sum   'Rb5 Hg19'
_cell_volume   828.15082636
_cell_formula_units_Z   1
loop_
 _symmetry_equiv_pos_site_id
 _symmetry_equiv_pos_as_xyz
  1  'x, y, z'
loop_
 _atom_site_type_symbol
 _atom_site_label
 _atom_site_symmetry_multiplicity
 _atom_site_fract_x
 _atom_site_fract_y
 _atom_site_fract_z
 _atom_site_occupancy
  Rb  Rb0  1  0.50000000  0.50000000  0.00000000  1
  Rb  Rb1  1  0.67588827  0.87965957  0.55554784  1
  Rb  Rb2  1  0.87965957  0.32411173  0.20377129  1
  Rb  Rb3  1  0.12034043  0.67588827  0.79622871  1
  Rb  Rb4  1  0.32411173  0.12034043  0.44445216  1
  Hg  Hg5  1  0.47274383  0.06456553  0.81823707  1
  Hg  Hg6  1  0.24632846  0.65450676  0.18176293  1
  Hg  Hg7  1  0.06456553  0.24632846  0.59182170  1
  Hg  Hg8  1  0.75000000  0.25000000  0.50000000  1
  Hg  Hg9  1  0.25000000  0.75000000  0.50000000  1
  Hg  Hg10  1  0.29337264  0.38688018  0.25271068  1
  Hg  Hg11  1  0.38688018  0.13416950  0.09350754  1
  Hg  Hg12  1  0.04066195  0.29337264  0.90649246  1
  Hg  Hg13  1  0.13416950  0.04066195  0.74728932  1
  Hg  Hg14  1  0.70662736  0.61311982  0.74728932  1
  Hg  Hg15  1  0.61311982  0.86583050  0.90649246  1
  Hg  Hg16  1  0.95933805  0.70662736  0.09350754  1
  Hg  Hg17  1  0.86583050  0.95933805  0.25271068  1
  Hg  Hg18  1  0.00000000  0.00000000  0.00000000  1
  Hg  Hg19  1  0.65450676  0.47274383  0.40817830  1
  Hg  Hg20  1  0.93543447  0.75367154  0.40817830  1
  Hg  Hg21  1  0.75367154  0.34549324  0.81823707  1
  Hg  Hg22  1  0.52725617  0.93543447  0.18176293  1
  Hg  Hg23  1  0.34549324  0.52725617  0.59182170  1
