# generated using pymatgen
data_Na4V3O8
_symmetry_space_group_name_H-M   'P 1'
_cell_length_a   6.89386851
_cell_length_b   4.25998689
_cell_length_c   12.21486050
_cell_angle_alpha   90.00000000
_cell_angle_beta   76.62815866
_cell_angle_gamma   90.00000000
_symmetry_Int_Tables_number   1
_chemical_formula_structural   Na4V3O8
_chemical_formula_sum   'Na8 V6 O16'
_cell_volume   348.99833518
_cell_formula_units_Z   2
loop_
 _symmetry_equiv_pos_site_id
 _symmetry_equiv_pos_as_xyz
  1  'x, y, z'
loop_
 _atom_site_type_symbol
 _atom_site_label
 _atom_site_symmetry_multiplicity
 _atom_site_fract_x
 _atom_site_fract_y
 _atom_site_fract_z
 _atom_site_occupancy
  Na  Na0  1  0.17848922  0.75000000  0.40363658  1
  Na  Na1  1  0.03304269  0.75000000  0.66728346  1
  Na  Na2  1  0.58581068  0.25000000  0.04695098  1
  Na  Na3  1  0.46008332  0.25000000  0.29108967  1
  Na  Na4  1  0.53991668  0.75000000  0.70891033  1
  Na  Na5  1  0.41418932  0.75000000  0.95304902  1
  Na  Na6  1  0.96695731  0.25000000  0.33271654  1
  Na  Na7  1  0.82151078  0.25000000  0.59636342  1
  V  V8  1  0.09495111  0.25000000  0.07420468  1
  V  V9  1  0.35039900  0.25000000  0.55785998  1
  V  V10  1  0.21021349  0.25000000  0.81143950  1
  V  V11  1  0.78978651  0.75000000  0.18856050  1
  V  V12  1  0.64960100  0.75000000  0.44214002  1
  V  V13  1  0.90504889  0.75000000  0.92579532  1
  O  O14  1  0.04973248  0.75000000  0.06549126  1
  O  O15  1  0.24376680  0.25000000  0.16820449  1
  O  O16  1  0.19079057  0.25000000  0.46131352  1
  O  O17  1  0.09352882  0.25000000  0.69001207  1
  O  O18  1  0.17721688  0.75000000  0.82771708  1
  O  O19  1  0.54237020  0.75000000  0.30756246  1
  O  O20  1  0.38513665  0.75000000  0.54515978  1
  O  O21  1  0.67282727  0.75000000  0.06348987  1
  O  O22  1  0.32717273  0.25000000  0.93651013  1
  O  O23  1  0.61486335  0.25000000  0.45484022  1
  O  O24  1  0.45762980  0.25000000  0.69243754  1
  O  O25  1  0.82278312  0.25000000  0.17228292  1
  O  O26  1  0.90647118  0.75000000  0.30998793  1
  O  O27  1  0.80920943  0.75000000  0.53868648  1
  O  O28  1  0.75623320  0.75000000  0.83179551  1
  O  O29  1  0.95026752  0.25000000  0.93450874  1
