# generated using pymatgen
data_Ca3Ga3Ir2
_symmetry_space_group_name_H-M   'P 1'
_cell_length_a   5.84120467
_cell_length_b   8.11745884
_cell_length_c   14.98651129
_cell_angle_alpha   90.00000000
_cell_angle_beta   90.00000000
_cell_angle_gamma   90.00000000
_symmetry_Int_Tables_number   1
_chemical_formula_structural   Ca3Ga3Ir2
_chemical_formula_sum   'Ca12 Ga12 Ir8'
_cell_volume   710.59650013
_cell_formula_units_Z   4
loop_
 _symmetry_equiv_pos_site_id
 _symmetry_equiv_pos_as_xyz
  1  'x, y, z'
loop_
 _atom_site_type_symbol
 _atom_site_label
 _atom_site_symmetry_multiplicity
 _atom_site_fract_x
 _atom_site_fract_y
 _atom_site_fract_z
 _atom_site_occupancy
  Ca  Ca0  1  0.88811342  0.45201991  0.10778136  1
  Ca  Ca1  1  0.38811342  0.04798009  0.89221864  1
  Ca  Ca2  1  0.61188658  0.95201991  0.39221864  1
  Ca  Ca3  1  0.11188658  0.54798009  0.60778136  1
  Ca  Ca4  1  0.11188658  0.54798009  0.89221864  1
  Ca  Ca5  1  0.61188658  0.95201991  0.10778136  1
  Ca  Ca6  1  0.38811342  0.04798009  0.60778136  1
  Ca  Ca7  1  0.88811342  0.45201991  0.39221864  1
  Ca  Ca8  1  0.37830698  0.30031011  0.25000000  1
  Ca  Ca9  1  0.87830698  0.19968989  0.75000000  1
  Ca  Ca10  1  0.12169302  0.80031011  0.25000000  1
  Ca  Ca11  1  0.62169302  0.69968989  0.75000000  1
  Ga  Ga12  1  0.91999141  0.14400722  0.25000000  1
  Ga  Ga13  1  0.41999141  0.35599278  0.75000000  1
  Ga  Ga14  1  0.58000859  0.64400722  0.25000000  1
  Ga  Ga15  1  0.08000859  0.85599278  0.75000000  1
  Ga  Ga16  1  0.37605273  0.32183559  0.03930675  1
  Ga  Ga17  1  0.87605273  0.17816441  0.96069325  1
  Ga  Ga18  1  0.12394727  0.82183559  0.46069325  1
  Ga  Ga19  1  0.62394727  0.67816441  0.53930675  1
  Ga  Ga20  1  0.62394727  0.67816441  0.96069325  1
  Ga  Ga21  1  0.12394727  0.82183559  0.03930675  1
  Ga  Ga22  1  0.87605273  0.17816441  0.53930675  1
  Ga  Ga23  1  0.37605273  0.32183559  0.46069325  1
  Ir  Ir24  1  0.10626829  0.11026403  0.09936941  1
  Ir  Ir25  1  0.60626829  0.38973597  0.90063059  1
  Ir  Ir26  1  0.39373171  0.61026403  0.40063059  1
  Ir  Ir27  1  0.89373171  0.88973597  0.59936941  1
  Ir  Ir28  1  0.89373171  0.88973597  0.90063059  1
  Ir  Ir29  1  0.39373171  0.61026403  0.09936941  1
  Ir  Ir30  1  0.60626829  0.38973597  0.59936941  1
  Ir  Ir31  1  0.10626829  0.11026403  0.40063059  1
