# generated using pymatgen
data_LiCo2OF3
_symmetry_space_group_name_H-M   'P 1'
_cell_length_a   6.11493025
_cell_length_b   6.15785959
_cell_length_c   8.51055685
_cell_angle_alpha   89.85615851
_cell_angle_beta   89.91553260
_cell_angle_gamma   89.08559561
_symmetry_Int_Tables_number   1
_chemical_formula_structural   LiCo2OF3
_chemical_formula_sum   'Li4 Co8 O4 F12'
_cell_volume   320.42186313
_cell_formula_units_Z   4
loop_
 _symmetry_equiv_pos_site_id
 _symmetry_equiv_pos_as_xyz
  1  'x, y, z'
loop_
 _atom_site_type_symbol
 _atom_site_label
 _atom_site_symmetry_multiplicity
 _atom_site_fract_x
 _atom_site_fract_y
 _atom_site_fract_z
 _atom_site_occupancy
  Li  Li0  1  0.24741534  0.48954468  0.25480801  1
  Li  Li1  1  0.48749377  0.25078548  0.00322382  1
  Li  Li2  1  0.50040519  0.76203791  0.49518676  1
  Li  Li3  1  0.73844436  0.49718905  0.74544653  1
  Co  Co4  1  0.01228561  0.24213769  0.01209819  1
  Co  Co5  1  0.99892360  0.76942485  0.50150304  1
  Co  Co6  1  0.25004545  0.22887061  0.60621779  1
  Co  Co7  1  0.25443809  0.77377976  0.89181868  1
  Co  Co8  1  0.24205235  0.01824450  0.25388011  1
  Co  Co9  1  0.74087904  0.00117999  0.73423188  1
  Co  Co10  1  0.77161887  0.23649697  0.37792770  1
  Co  Co11  1  0.74277610  0.73653151  0.12158039  1
  O  O12  1  0.01815313  0.26605508  0.24097163  1
  O  O13  1  0.25517435  0.02551708  0.01425786  1
  O  O14  1  0.24493979  0.97442248  0.48529625  1
  O  O15  1  0.75164643  0.98024172  0.51028408  1
  F  F16  1  0.01049149  0.74403178  0.24438428  1
  F  F17  1  0.24387199  0.51704463  0.49871925  1
  F  F18  1  0.26260847  0.49322995  0.00418484  1
  F  F19  1  0.49588017  0.26482083  0.24650600  1
  F  F20  1  0.48375998  0.73869401  0.25291222  1
  F  F21  1  0.51143697  0.25512382  0.75271827  1
  F  F22  1  0.51743050  0.74463675  0.74997535  1
  F  F23  1  0.74426099  0.00291420  0.98436755  1
  F  F24  1  0.75875163  0.51771822  0.51309756  1
  F  F25  1  0.75073112  0.47784798  0.98582796  1
  F  F26  1  0.98310336  0.25034812  0.75924467  1
  F  F27  1  0.98098185  0.74113034  0.75932735  1
