# generated using pymatgen
data_Ba2MnReO6
_symmetry_space_group_name_H-M   'P 1'
_cell_length_a   5.85998584
_cell_length_b   5.85998584
_cell_length_c   5.85998584
_cell_angle_alpha   59.99999999
_cell_angle_beta   59.99999998
_cell_angle_gamma   59.99999999
_symmetry_Int_Tables_number   1
_chemical_formula_structural   Ba2MnReO6
_chemical_formula_sum   'Ba2 Mn1 Re1 O6'
_cell_volume   142.29010552
_cell_formula_units_Z   1
loop_
 _symmetry_equiv_pos_site_id
 _symmetry_equiv_pos_as_xyz
  1  'x, y, z'
loop_
 _atom_site_type_symbol
 _atom_site_label
 _atom_site_symmetry_multiplicity
 _atom_site_fract_x
 _atom_site_fract_y
 _atom_site_fract_z
 _atom_site_occupancy
  O  O0  1  0.26489746  0.73510394  0.73510224  1
  O  O1  1  0.26489746  0.73510394  0.26489554  1
  O  O2  1  0.73510371  0.26489721  0.73510248  1
  O  O3  1  0.26489770  0.26489721  0.73510300  1
  O  O4  1  0.73510371  0.26489721  0.26489578  1
  O  O5  1  0.73510348  0.73510394  0.26489674  1
  Mn  Mn6  1  0.00000000  0.00000000  0.00000000  1
  Ba  Ba7  1  0.25000047  0.24999976  0.25000011  1
  Ba  Ba8  1  0.74999942  0.74999929  0.75000132  1
  Re  Re9  1  0.50000094  0.49999953  0.50000022  1
