# generated using pymatgen
data_Cu4SnP10
_symmetry_space_group_name_H-M   'P 1'
_cell_length_a   7.29631034
_cell_length_b   7.29249008
_cell_length_c   7.29248985
_cell_angle_alpha   59.99999527
_cell_angle_beta   60.01731906
_cell_angle_gamma   60.01732017
_symmetry_Int_Tables_number   1
_chemical_formula_structural   Cu4SnP10
_chemical_formula_sum   'Cu4 Sn1 P10'
_cell_volume   274.44391590
_cell_formula_units_Z   1
loop_
 _symmetry_equiv_pos_site_id
 _symmetry_equiv_pos_as_xyz
  1  'x, y, z'
loop_
 _atom_site_type_symbol
 _atom_site_label
 _atom_site_symmetry_multiplicity
 _atom_site_fract_x
 _atom_site_fract_y
 _atom_site_fract_z
 _atom_site_occupancy
  Cu  Cu0  1  -0.00023719  1.00007906  1.00007906  1
  Cu  Cu1  1  0.38201265  0.37581802  0.37581802  1
  Cu  Cu2  1  0.38201265  0.86635131  0.37581802  1
  Cu  Cu3  1  0.38201265  0.37581802  0.86635131  1
  P  P4  1  0.50177724  0.50545096  0.99638590  1
  P  P5  1  0.50177724  0.99638590  0.50545096  1
  P  P6  1  0.38040132  0.87319956  0.87319956  1
  P  P7  1  0.86963277  0.38053536  0.87491594  1
  P  P8  1  0.00198070  0.50482758  0.50482758  1
  P  P9  1  0.50177724  0.99638590  0.99638590  1
  P  P10  1  0.86963277  0.87491594  0.38053536  1
  P  P11  1  0.86963277  0.87491594  0.87491594  1
  P  P12  1  0.00198070  0.50482758  0.98836414  1
  P  P13  1  0.00198070  0.98836414  0.50482758  1
  Sn  Sn14  1  0.71952578  0.42682474  0.42682474  1
