# generated using pymatgen
data_CeGaNi
_symmetry_space_group_name_H-M   'P 1'
_cell_length_a   6.89442911
_cell_length_b   6.89442910
_cell_length_c   3.99527190
_cell_angle_alpha   90.00000000
_cell_angle_beta   90.00000000
_cell_angle_gamma   119.99999998
_symmetry_Int_Tables_number   1
_chemical_formula_structural   CeGaNi
_chemical_formula_sum   'Ce3 Ga3 Ni3'
_cell_volume   164.46503927
_cell_formula_units_Z   3
loop_
 _symmetry_equiv_pos_site_id
 _symmetry_equiv_pos_as_xyz
  1  'x, y, z'
loop_
 _atom_site_type_symbol
 _atom_site_label
 _atom_site_symmetry_multiplicity
 _atom_site_fract_x
 _atom_site_fract_y
 _atom_site_fract_z
 _atom_site_occupancy
  Ni  Ni0  1  0.66666667  0.33333333  0.00000000  1
  Ni  Ni1  1  0.33333333  0.66666667  0.00000000  1
  Ni  Ni2  1  0.00000000  0.00000000  0.50000000  1
  Ga  Ga3  1  0.23750781  0.00000000  0.00000000  1
  Ga  Ga4  1  0.76249219  0.76249219  0.00000000  1
  Ga  Ga5  1  0.00000000  0.23750781  0.00000000  1
  Ce  Ce6  1  0.00000000  0.57905102  0.50000000  1
  Ce  Ce7  1  0.42094898  0.42094898  0.50000000  1
  Ce  Ce8  1  0.57905102  0.00000000  0.50000000  1
