# generated using pymatgen
data_Ga5Pd13
_symmetry_space_group_name_H-M   'P 1'
_cell_length_a   4.10205962
_cell_length_b   5.54357868
_cell_length_c   12.47683231
_cell_angle_alpha   102.39290873
_cell_angle_beta   99.46162954
_cell_angle_gamma   89.99999996
_symmetry_Int_Tables_number   1
_chemical_formula_structural   Ga5Pd13
_chemical_formula_sum   'Ga5 Pd13'
_cell_volume   273.15997906
_cell_formula_units_Z   1
loop_
 _symmetry_equiv_pos_site_id
 _symmetry_equiv_pos_as_xyz
  1  'x, y, z'
loop_
 _atom_site_type_symbol
 _atom_site_label
 _atom_site_symmetry_multiplicity
 _atom_site_fract_x
 _atom_site_fract_y
 _atom_site_fract_z
 _atom_site_occupancy
  Ga  Ga0  1  0.00000000  0.00000000  0.00000000  1
  Ga  Ga1  1  0.89409359  0.35544351  0.78818719  1
  Ga  Ga2  1  0.10590641  0.64455649  0.21181281  1
  Ga  Ga3  1  0.67684007  0.31246921  0.35368015  1
  Ga  Ga4  1  0.32315993  0.68753079  0.64631985  1
  Pd  Pd5  1  0.00000000  0.50000000  0.00000000  1
  Pd  Pd6  1  0.88726411  0.87577724  0.77452821  1
  Pd  Pd7  1  0.11273589  0.12422276  0.22547179  1
  Pd  Pd8  1  0.78749423  0.40712821  0.57498845  1
  Pd  Pd9  1  0.21250577  0.59287179  0.42501155  1
  Pd  Pd10  1  0.77549808  0.89069889  0.55099615  1
  Pd  Pd11  1  0.22450192  0.10930111  0.44900385  1
  Pd  Pd12  1  0.66013489  0.82920006  0.32026978  1
  Pd  Pd13  1  0.33986511  0.17079994  0.67973022  1
  Pd  Pd14  1  0.57045304  0.37326300  0.14090607  1
  Pd  Pd15  1  0.42954696  0.62673700  0.85909393  1
  Pd  Pd16  1  0.54504413  0.84820488  0.09008827  1
  Pd  Pd17  1  0.45495587  0.15179512  0.90991173  1
