# generated using pymatgen
data_Sm(GePd)2
_symmetry_space_group_name_H-M   'P 1'
_cell_length_a   4.32379518
_cell_length_b   4.32379519
_cell_length_c   5.94258506
_cell_angle_alpha   111.33359762
_cell_angle_beta   111.33359761
_cell_angle_gamma   90.00000001
_symmetry_Int_Tables_number   1
_chemical_formula_structural   Sm(GePd)2
_chemical_formula_sum   'Sm1 Ge2 Pd2'
_cell_volume   95.26617549
_cell_formula_units_Z   1
loop_
 _symmetry_equiv_pos_site_id
 _symmetry_equiv_pos_as_xyz
  1  'x, y, z'
loop_
 _atom_site_type_symbol
 _atom_site_label
 _atom_site_symmetry_multiplicity
 _atom_site_fract_x
 _atom_site_fract_y
 _atom_site_fract_z
 _atom_site_occupancy
  Ge  Ge0  1  0.62149357  0.62149357  0.24298713  1
  Ge  Ge1  1  0.37850643  0.37850643  0.75701287  1
  Pd  Pd2  1  0.75000000  0.25000000  0.50000000  1
  Pd  Pd3  1  0.25000000  0.75000000  0.50000000  1
  Sm  Sm4  1  0.00000000  0.00000000  0.00000000  1
