# generated using pymatgen
data_Na5TlSn3
_symmetry_space_group_name_H-M   'P 1'
_cell_length_a   7.28445005
_cell_length_b   11.50870690
_cell_length_c   13.78342045
_cell_angle_alpha   90.00000000
_cell_angle_beta   90.00000000
_cell_angle_gamma   105.10044661
_symmetry_Int_Tables_number   1
_chemical_formula_structural   Na5TlSn3
_chemical_formula_sum   'Na20 Tl4 Sn12'
_cell_volume   1115.62787413
_cell_formula_units_Z   4
loop_
 _symmetry_equiv_pos_site_id
 _symmetry_equiv_pos_as_xyz
  1  'x, y, z'
loop_
 _atom_site_type_symbol
 _atom_site_label
 _atom_site_symmetry_multiplicity
 _atom_site_fract_x
 _atom_site_fract_y
 _atom_site_fract_z
 _atom_site_occupancy
  Na  Na0  1  0.36746755  0.02534690  0.89204650  1
  Na  Na1  1  0.63253245  0.47465310  0.39204650  1
  Na  Na2  1  0.63253245  0.97465310  0.10795350  1
  Na  Na3  1  0.36746755  0.52534690  0.60795350  1
  Na  Na4  1  0.44596353  0.37079726  0.81387409  1
  Na  Na5  1  0.55403647  0.12920274  0.31387409  1
  Na  Na6  1  0.55403647  0.62920274  0.18612591  1
  Na  Na7  1  0.44596353  0.87079726  0.68612591  1
  Na  Na8  1  0.65528226  0.33653539  0.05342091  1
  Na  Na9  1  0.34471774  0.16346461  0.55342091  1
  Na  Na10  1  0.34471774  0.66346461  0.94657909  1
  Na  Na11  1  0.65528226  0.83653539  0.44657909  1
  Na  Na12  1  0.94310681  0.46504813  0.81285731  1
  Na  Na13  1  0.05689319  0.03495187  0.31285731  1
  Na  Na14  1  0.05689319  0.53495187  0.18714269  1
  Na  Na15  1  0.94310681  0.96504813  0.68714269  1
  Na  Na16  1  0.95998602  0.65463215  0.58854918  1
  Na  Na17  1  0.04001398  0.84536785  0.08854918  1
  Na  Na18  1  0.04001398  0.34536785  0.41145082  1
  Na  Na19  1  0.95998602  0.15463215  0.91145082  1
  Sn  Sn20  1  0.65952869  0.16849256  0.73511351  1
  Sn  Sn21  1  0.34047131  0.33150744  0.23511351  1
  Sn  Sn22  1  0.34047131  0.83150744  0.26488649  1
  Sn  Sn23  1  0.65952869  0.66849256  0.76488649  1
  Sn  Sn24  1  0.73759268  0.36919419  0.59374664  1
  Sn  Sn25  1  0.26240732  0.13080581  0.09374664  1
  Sn  Sn26  1  0.26240732  0.63080581  0.40625336  1
  Sn  Sn27  1  0.73759268  0.86919419  0.90625336  1
  Sn  Sn28  1  0.93800535  0.22250001  0.17197377  1
  Sn  Sn29  1  0.06199465  0.27749999  0.67197377  1
  Sn  Sn30  1  0.06199465  0.77749999  0.82802623  1
  Sn  Sn31  1  0.93800535  0.72250001  0.32802623  1
  Tl  Tl32  1  0.77930962  0.11149916  0.52210728  1
  Tl  Tl33  1  0.22069038  0.38850084  0.02210728  1
  Tl  Tl34  1  0.22069038  0.88850084  0.47789272  1
  Tl  Tl35  1  0.77930962  0.61149916  0.97789272  1
