# generated using pymatgen
data_K4GaAu8
_symmetry_space_group_name_H-M   'P 1'
_cell_length_a   5.91749001
_cell_length_b   11.02078010
_cell_length_c   11.07958697
_cell_angle_alpha   97.44475577
_cell_angle_beta   90.00000000
_cell_angle_gamma   105.57322251
_symmetry_Int_Tables_number   1
_chemical_formula_structural   K4GaAu8
_chemical_formula_sum   'K8 Ga2 Au16'
_cell_volume   689.70750569
_cell_formula_units_Z   2
loop_
 _symmetry_equiv_pos_site_id
 _symmetry_equiv_pos_as_xyz
  1  'x, y, z'
loop_
 _atom_site_type_symbol
 _atom_site_label
 _atom_site_symmetry_multiplicity
 _atom_site_fract_x
 _atom_site_fract_y
 _atom_site_fract_z
 _atom_site_occupancy
  K  K0  1  0.51559223  0.03118446  0.83691236  1
  K  K1  1  0.48440777  0.96881554  0.16308764  1
  K  K2  1  0.71500954  0.43001908  0.89863439  1
  K  K3  1  0.28499046  0.56998092  0.10136561  1
  K  K4  1  0.77654413  0.55308826  0.59475194  1
  K  K5  1  0.22345587  0.44691174  0.40524806  1
  K  K6  1  0.95395586  0.90791172  0.65609075  1
  K  K7  1  0.04604414  0.09208828  0.34390925  1
  Ga  Ga8  1  0.32700722  0.65401444  0.76562520  1
  Ga  Ga9  1  0.67299278  0.34598556  0.23437480  1
  Au  Au10  1  0.20964941  0.41929882  0.73266065  1
  Au  Au11  1  0.79035059  0.58070118  0.26733935  1
  Au  Au12  1  0.37604772  0.75209543  0.57441194  1
  Au  Au13  1  0.62395228  0.24790457  0.42558806  1
  Au  Au14  1  0.50000000  0.00000000  0.50000000  1
  Au  Au15  1  0.00000000  0.00000000  0.00000000  1
  Au  Au16  1  0.90092486  0.80184973  0.14883372  1
  Au  Au17  1  0.09907514  0.19815027  0.85116628  1
  Au  Au18  1  0.64695670  0.79448972  0.36810799  1
  Au  Au19  1  0.85246698  0.20551028  0.63189201  1
  Au  Au20  1  0.35304330  0.20551028  0.63189201  1
  Au  Au21  1  0.14753302  0.79448972  0.36810799  1
  Au  Au22  1  0.35077122  0.23590388  0.08018524  1
  Au  Au23  1  0.11486734  0.76409612  0.91981476  1
  Au  Au24  1  0.64922878  0.76409612  0.91981476  1
  Au  Au25  1  0.88513266  0.23590388  0.08018524  1
