# generated using pymatgen
data_Ag3(PO4)2
_symmetry_space_group_name_H-M   'P 1'
_cell_length_a   5.87781057
_cell_length_b   5.87781057
_cell_length_c   5.87781057
_cell_angle_alpha   86.52273872
_cell_angle_beta   86.52273872
_cell_angle_gamma   86.52273872
_symmetry_Int_Tables_number   1
_chemical_formula_structural   Ag3(PO4)2
_chemical_formula_sum   'Ag3 P2 O8'
_cell_volume   201.99235199
_cell_formula_units_Z   1
loop_
 _symmetry_equiv_pos_site_id
 _symmetry_equiv_pos_as_xyz
  1  'x, y, z'
loop_
 _atom_site_type_symbol
 _atom_site_label
 _atom_site_symmetry_multiplicity
 _atom_site_fract_x
 _atom_site_fract_y
 _atom_site_fract_z
 _atom_site_occupancy
  Ag  Ag0  1  0.00938800  0.48367424  0.74192489  1
  Ag  Ag1  1  0.48367424  0.74192489  0.00938800  1
  Ag  Ag2  1  0.74192489  0.00938800  0.48367424  1
  O  O3  1  0.12560616  0.12560616  0.12560616  1
  O  O4  1  0.13888198  0.78889481  0.87238274  1
  O  O5  1  0.36783192  0.36852860  0.68595237  1
  O  O6  1  0.36852860  0.68595237  0.36783192  1
  O  O7  1  0.68595237  0.36783192  0.36852860  1
  O  O8  1  0.66692823  0.66692823  0.66692823  1
  O  O9  1  0.87238274  0.13888198  0.78889481  1
  O  O10  1  0.78889481  0.87238274  0.13888198  1
  P  P11  1  0.98621114  0.98621114  0.98621114  1
  P  P12  1  0.51379493  0.51379493  0.51379493  1
