# generated using pymatgen
data_TiCo3O8
_symmetry_space_group_name_H-M   'P 1'
_cell_length_a   5.85222457
_cell_length_b   5.74583399
_cell_length_c   5.74583392
_cell_angle_alpha   60.00000339
_cell_angle_beta   60.59957052
_cell_angle_gamma   89.99999722
_symmetry_Int_Tables_number   1
_chemical_formula_structural   TiCo3O8
_chemical_formula_sum   'Ti1 Co3 O8'
_cell_volume   137.84438334
_cell_formula_units_Z   1
loop_
 _symmetry_equiv_pos_site_id
 _symmetry_equiv_pos_as_xyz
  1  'x, y, z'
loop_
 _atom_site_type_symbol
 _atom_site_label
 _atom_site_symmetry_multiplicity
 _atom_site_fract_x
 _atom_site_fract_y
 _atom_site_fract_z
 _atom_site_occupancy
  Ti  Ti0  1  0.00000000  0.00000000  0.00000000  1
  Co  Co1  1  0.00000000  0.00000000  0.50000000  1
  Co  Co2  1  0.00000000  0.50000000  0.00000000  1
  Co  Co3  1  0.00000000  0.50000000  0.50000000  1
  O  O4  1  0.19698706  0.23886628  0.04187921  1
  O  O5  1  0.19698706  0.23886628  0.52226745  1
  O  O6  1  0.19698706  0.71925351  0.04187921  1
  O  O7  1  0.19793291  0.73264464  0.53471172  1
  O  O8  1  0.80206709  0.26735536  0.46528828  1
  O  O9  1  0.80301294  0.28074649  0.95812079  1
  O  O10  1  0.80301294  0.76113372  0.47773255  1
  O  O11  1  0.80301294  0.76113372  0.95812079  1
