# generated using pymatgen
data_Er(Al2Fe)4
_symmetry_space_group_name_H-M   'P 1'
_cell_length_a   5.01731964
_cell_length_b   6.62843295
_cell_length_c   6.62843294
_cell_angle_alpha   81.76467295
_cell_angle_beta   67.76108673
_cell_angle_gamma   67.76108674
_symmetry_Int_Tables_number   1
_chemical_formula_structural   Er(Al2Fe)4
_chemical_formula_sum   'Er1 Al8 Fe4'
_cell_volume   188.86570495
_cell_formula_units_Z   1
loop_
 _symmetry_equiv_pos_site_id
 _symmetry_equiv_pos_as_xyz
  1  'x, y, z'
loop_
 _atom_site_type_symbol
 _atom_site_label
 _atom_site_symmetry_multiplicity
 _atom_site_fract_x
 _atom_site_fract_y
 _atom_site_fract_z
 _atom_site_occupancy
  Al  Al0  1  0.33983750  0.66016250  0.66016250  1
  Al  Al1  1  0.00000000  0.33983750  0.66016250  1
  Al  Al2  1  0.00000000  0.66016250  0.33983750  1
  Al  Al3  1  0.66016250  0.33983750  0.33983750  1
  Al  Al4  1  0.27990782  0.22009218  0.22009218  1
  Al  Al5  1  0.50000000  0.77990782  0.22009218  1
  Al  Al6  1  0.50000000  0.22009218  0.77990782  1
  Al  Al7  1  0.72009218  0.77990782  0.77990782  1
  Fe  Fe8  1  0.00000000  0.00000000  0.50000000  1
  Fe  Fe9  1  0.50000000  0.00000000  0.50000000  1
  Fe  Fe10  1  0.00000000  0.50000000  0.00000000  1
  Fe  Fe11  1  0.50000000  0.50000000  0.00000000  1
  Er  Er12  1  0.00000000  0.00000000  0.00000000  1
