# generated using pymatgen
data_Cu2P2O7
_symmetry_space_group_name_H-M   'P 1'
_cell_length_a   5.45423950
_cell_length_b   5.45423950
_cell_length_c   9.37708915
_cell_angle_alpha   103.90126978
_cell_angle_beta   103.90126981
_cell_angle_gamma   97.61191892
_symmetry_Int_Tables_number   1
_chemical_formula_structural   Cu2P2O7
_chemical_formula_sum   'Cu4 P4 O14'
_cell_volume   257.44562744
_cell_formula_units_Z   2
loop_
 _symmetry_equiv_pos_site_id
 _symmetry_equiv_pos_as_xyz
  1  'x, y, z'
loop_
 _atom_site_type_symbol
 _atom_site_label
 _atom_site_symmetry_multiplicity
 _atom_site_fract_x
 _atom_site_fract_y
 _atom_site_fract_z
 _atom_site_occupancy
  O  O0  1  0.68990523  0.98844137  0.37698908  1
  O  O1  1  0.01155863  0.31009477  0.12301092  1
  O  O2  1  0.31009477  0.01155863  0.62301092  1
  O  O3  1  0.98844137  0.68990523  0.87698908  1
  O  O4  1  0.93543754  0.62431732  0.38591790  1
  O  O5  1  0.37568268  0.06456246  0.11408210  1
  O  O6  1  0.06456246  0.37568268  0.61408210  1
  O  O7  1  0.62431732  0.93543754  0.88591790  1
  O  O8  1  0.93949034  0.06050966  0.75000000  1
  O  O9  1  0.06050966  0.93949034  0.25000000  1
  O  O10  1  0.62853053  0.62998995  0.63778472  1
  O  O11  1  0.37001005  0.37146947  0.86221528  1
  O  O12  1  0.37146947  0.37001005  0.36221528  1
  O  O13  1  0.62998995  0.62853053  0.13778472  1
  P  P14  1  0.82172691  0.79923262  0.29294388  1
  P  P15  1  0.20076738  0.17827309  0.20705612  1
  P  P16  1  0.17827309  0.20076738  0.70705612  1
  P  P17  1  0.79923262  0.82172691  0.79294388  1
  Cu  Cu18  1  0.33832560  0.71124173  0.99132362  1
  Cu  Cu19  1  0.28875827  0.66167440  0.50867638  1
  Cu  Cu20  1  0.66167440  0.28875827  0.00867638  1
  Cu  Cu21  1  0.71124173  0.33832560  0.49132362  1
