# generated using pymatgen
data_Na2PdF4
_symmetry_space_group_name_H-M   'P 1'
_cell_length_a   3.49787597
_cell_length_b   5.66813867
_cell_length_c   10.24658635
_cell_angle_alpha   90.00000000
_cell_angle_beta   95.18958166
_cell_angle_gamma   90.00000000
_symmetry_Int_Tables_number   1
_chemical_formula_structural   Na2PdF4
_chemical_formula_sum   'Na4 Pd2 F8'
_cell_volume   202.32063783
_cell_formula_units_Z   2
loop_
 _symmetry_equiv_pos_site_id
 _symmetry_equiv_pos_as_xyz
  1  'x, y, z'
loop_
 _atom_site_type_symbol
 _atom_site_label
 _atom_site_symmetry_multiplicity
 _atom_site_fract_x
 _atom_site_fract_y
 _atom_site_fract_z
 _atom_site_occupancy
  F  F0  1  0.20892403  0.32245542  0.66124569  1
  F  F1  1  0.79107597  0.82245542  0.83875431  1
  F  F2  1  0.79107597  0.67754458  0.33875431  1
  F  F3  1  0.20892403  0.17754458  0.16124569  1
  F  F4  1  0.79114501  0.19355457  0.42609382  1
  F  F5  1  0.20885499  0.69355457  0.07390618  1
  F  F6  1  0.79114501  0.30644543  0.92609382  1
  F  F7  1  0.20885499  0.80644543  0.57390618  1
  Na  Na8  1  0.28196768  0.95648421  0.34889269  1
  Na  Na9  1  0.71803232  0.45648421  0.15110731  1
  Na  Na10  1  0.71803232  0.04351579  0.65110731  1
  Na  Na11  1  0.28196768  0.54351579  0.84889269  1
  Pd  Pd12  1  0.00000000  0.50000000  0.50000000  1
  Pd  Pd13  1  0.00000000  0.00000000  0.00000000  1
