# generated using pymatgen
data_Na10Zn4O9
_symmetry_space_group_name_H-M   'P 1'
_cell_length_a   8.75605443
_cell_length_b   8.75605433
_cell_length_c   8.74267163
_cell_angle_alpha   77.51135906
_cell_angle_beta   77.51135890
_cell_angle_gamma   76.91751363
_symmetry_Int_Tables_number   1
_chemical_formula_structural   Na10Zn4O9
_chemical_formula_sum   'Na20 Zn8 O18'
_cell_volume   627.50108342
_cell_formula_units_Z   2
loop_
 _symmetry_equiv_pos_site_id
 _symmetry_equiv_pos_as_xyz
  1  'x, y, z'
loop_
 _atom_site_type_symbol
 _atom_site_label
 _atom_site_symmetry_multiplicity
 _atom_site_fract_x
 _atom_site_fract_y
 _atom_site_fract_z
 _atom_site_occupancy
  Na  Na0  1  1.00012696  -0.00012696  1.00000000  1
  Na  Na1  1  0.05169794  0.35619549  0.36818646  1
  Na  Na2  1  0.08520365  0.67188228  0.29167206  1
  Na  Na3  1  0.19856425  0.24921924  0.63899251  1
  Na  Na4  1  0.30032406  0.69967594  0.00000000  1
  Na  Na5  1  0.39046795  0.05929768  0.37457421  1
  Na  Na6  1  0.38222330  0.36927547  0.06159912  1
  Na  Na7  1  0.22776311  0.77223689  0.50000000  1
  Na  Na8  1  0.23156031  0.51493129  0.77452605  1
  Na  Na9  1  0.32811772  0.91479635  0.70832794  1
  Na  Na10  1  0.48506871  0.76843969  0.22547395  1
  Na  Na11  1  0.49235075  0.22850777  0.77235293  1
  Na  Na12  1  0.65280087  0.22029956  0.21090730  1
  Na  Na13  1  0.77149223  0.50764925  0.22764707  1
  Na  Na14  1  0.76284448  0.23715552  0.50000000  1
  Na  Na15  1  0.63072453  0.61777670  0.93840088  1
  Na  Na16  1  0.64380451  0.94830206  0.63181354  1
  Na  Na17  1  0.77970044  0.34719913  0.78909270  1
  Na  Na18  1  0.75078076  0.80143575  0.36100749  1
  Na  Na19  1  0.94070232  0.60953205  0.62542579  1
  O  O20  1  0.11748461  0.50833030  0.10617482  1
  O  O21  1  0.12696321  0.08783476  0.50533620  1
  O  O22  1  0.19984465  0.50944947  0.50809936  1
  O  O23  1  0.10977751  0.79966814  0.80719265  1
  O  O24  1  0.20033186  0.89022249  0.19280735  1
  O  O25  1  0.20928295  0.20906742  0.89766935  1
  O  O26  1  0.49934553  0.10181330  0.10906849  1
  O  O27  1  0.50127252  0.20600989  0.50381301  1
  O  O28  1  0.51370940  0.50252715  0.19477804  1
  O  O29  1  0.49747285  0.48629060  0.80522196  1
  O  O30  1  0.49055053  0.80015535  0.49190064  1
  O  O31  1  0.49166970  0.88251539  0.89382518  1
  O  O32  1  0.79093258  0.79071705  0.10233065  1
  O  O33  1  0.77872884  0.08975631  0.77769923  1
  O  O34  1  0.91024369  0.22127116  0.22230077  1
  O  O35  1  0.79399011  0.49872748  0.49618699  1
  O  O36  1  0.91216524  0.87303679  0.49466380  1
  O  O37  1  0.89818670  0.50065447  0.89093151  1
  Zn  Zn38  1  0.03616141  0.02677285  0.33137047  1
  Zn  Zn39  1  0.03616881  0.33610986  0.03036569  1
  Zn  Zn40  1  0.32852061  0.03196869  0.03143418  1
  Zn  Zn41  1  0.41041934  0.42289011  0.40452304  1
  Zn  Zn42  1  0.57710989  0.58958066  0.59547696  1
  Zn  Zn43  1  0.66389014  0.96383119  0.96963431  1
  Zn  Zn44  1  0.96803131  0.67147939  0.96856582  1
  Zn  Zn45  1  0.97322715  0.96383859  0.66862953  1
