# generated using pymatgen
data_MgB4
_symmetry_space_group_name_H-M   'P 1'
_cell_length_a   4.39730955
_cell_length_b   5.48792206
_cell_length_c   7.42380618
_cell_angle_alpha   90.00000000
_cell_angle_beta   90.00000000
_cell_angle_gamma   90.00000000
_symmetry_Int_Tables_number   1
_chemical_formula_structural   MgB4
_chemical_formula_sum   'Mg4 B16'
_cell_volume   179.15197435
_cell_formula_units_Z   4
loop_
 _symmetry_equiv_pos_site_id
 _symmetry_equiv_pos_as_xyz
  1  'x, y, z'
loop_
 _atom_site_type_symbol
 _atom_site_label
 _atom_site_symmetry_multiplicity
 _atom_site_fract_x
 _atom_site_fract_y
 _atom_site_fract_z
 _atom_site_occupancy
  B  B0  1  0.75000000  0.27768507  0.65363375  1
  B  B1  1  0.25000000  0.72231493  0.34636625  1
  B  B2  1  0.75000000  0.77768507  0.84636625  1
  B  B3  1  0.25000000  0.22231493  0.15363375  1
  B  B4  1  0.75000000  0.44682142  0.85294200  1
  B  B5  1  0.25000000  0.55317858  0.14705800  1
  B  B6  1  0.75000000  0.94682142  0.64705800  1
  B  B7  1  0.25000000  0.05317858  0.35294200  1
  B  B8  1  0.55804786  0.86770113  0.43683613  1
  B  B9  1  0.05804786  0.13229887  0.56316387  1
  B  B10  1  0.94195214  0.36770113  0.06316387  1
  B  B11  1  0.44195214  0.63229887  0.93683613  1
  B  B12  1  0.44195214  0.13229887  0.56316387  1
  B  B13  1  0.94195214  0.86770113  0.43683613  1
  B  B14  1  0.05804786  0.63229887  0.93683613  1
  B  B15  1  0.55804786  0.36770113  0.06316387  1
  Mg  Mg16  1  0.75000000  0.95449175  0.13778538  1
  Mg  Mg17  1  0.25000000  0.04550825  0.86221462  1
  Mg  Mg18  1  0.75000000  0.45449175  0.36221462  1
  Mg  Mg19  1  0.25000000  0.54550825  0.63778538  1
