# generated using pymatgen
data_Er2Fe14B
_symmetry_space_group_name_H-M   'P 1'
_cell_length_a   8.71696372
_cell_length_b   8.71696372
_cell_length_c   11.84635182
_cell_angle_alpha   90.00000000
_cell_angle_beta   90.00000000
_cell_angle_gamma   90.00000000
_symmetry_Int_Tables_number   1
_chemical_formula_structural   Er2Fe14B
_chemical_formula_sum   'Er8 Fe56 B4'
_cell_volume   900.15045085
_cell_formula_units_Z   4
loop_
 _symmetry_equiv_pos_site_id
 _symmetry_equiv_pos_as_xyz
  1  'x, y, z'
loop_
 _atom_site_type_symbol
 _atom_site_label
 _atom_site_symmetry_multiplicity
 _atom_site_fract_x
 _atom_site_fract_y
 _atom_site_fract_z
 _atom_site_occupancy
  B  B0  1  0.62491012  0.62491012  0.00000000  1
  B  B1  1  0.87508988  0.12491012  0.50000000  1
  B  B2  1  0.12491012  0.87508988  0.50000000  1
  B  B3  1  0.37508988  0.37508988  0.00000000  1
  Fe  Fe4  1  0.14149814  0.46283236  0.32568554  1
  Fe  Fe5  1  0.85850186  0.53716764  0.32568554  1
  Fe  Fe6  1  0.46283236  0.14149814  0.67431446  1
  Fe  Fe7  1  0.96283236  0.35850186  0.82568554  1
  Fe  Fe8  1  0.03716764  0.64149814  0.82568554  1
  Fe  Fe9  1  0.35850186  0.96283236  0.17431446  1
  Fe  Fe10  1  0.64149814  0.03716764  0.17431446  1
  Fe  Fe11  1  0.53716764  0.85850186  0.67431446  1
  Fe  Fe12  1  0.85850186  0.53716764  0.67431446  1
  Fe  Fe13  1  0.14149814  0.46283236  0.67431446  1
  Fe  Fe14  1  0.53716764  0.85850186  0.32568554  1
  Fe  Fe15  1  0.03716764  0.64149814  0.17431446  1
  Fe  Fe16  1  0.96283236  0.35850186  0.17431446  1
  Fe  Fe17  1  0.64149814  0.03716764  0.82568554  1
  Fe  Fe18  1  0.35850186  0.96283236  0.82568554  1
  Fe  Fe19  1  0.46283236  0.14149814  0.32568554  1
  Fe  Fe20  1  0.06601363  0.72436569  0.37406176  1
  Fe  Fe21  1  0.93398637  0.27563431  0.37406176  1
  Fe  Fe22  1  0.72436569  0.06601363  0.62593824  1
  Fe  Fe23  1  0.22436569  0.43398637  0.87406176  1
  Fe  Fe24  1  0.77563431  0.56601363  0.87406176  1
  Fe  Fe25  1  0.43398637  0.22436569  0.12593824  1
  Fe  Fe26  1  0.56601363  0.77563431  0.12593824  1
  Fe  Fe27  1  0.27563431  0.93398637  0.62593824  1
  Fe  Fe28  1  0.93398637  0.27563431  0.62593824  1
  Fe  Fe29  1  0.06601363  0.72436569  0.62593824  1
  Fe  Fe30  1  0.27563431  0.93398637  0.37406176  1
  Fe  Fe31  1  0.77563431  0.56601363  0.12593824  1
  Fe  Fe32  1  0.22436569  0.43398637  0.12593824  1
  Fe  Fe33  1  0.56601363  0.77563431  0.87406176  1
  Fe  Fe34  1  0.43398637  0.22436569  0.87406176  1
  Fe  Fe35  1  0.72436569  0.06601363  0.37406176  1
  Fe  Fe36  1  0.81702096  0.81702096  0.74590491  1
  Fe  Fe37  1  0.18297904  0.18297904  0.74590491  1
  Fe  Fe38  1  0.81702096  0.81702096  0.25409509  1
  Fe  Fe39  1  0.31702096  0.68297904  0.24590491  1
  Fe  Fe40  1  0.68297904  0.31702096  0.24590491  1
  Fe  Fe41  1  0.68297904  0.31702096  0.75409509  1
  Fe  Fe42  1  0.31702096  0.68297904  0.75409509  1
  Fe  Fe43  1  0.18297904  0.18297904  0.25409509  1
  Fe  Fe44  1  0.59714887  0.59714887  0.69944804  1
  Fe  Fe45  1  0.40285113  0.40285113  0.69944804  1
  Fe  Fe46  1  0.59714887  0.59714887  0.30055196  1
  Fe  Fe47  1  0.09714887  0.90285113  0.19944804  1
  Fe  Fe48  1  0.90285113  0.09714887  0.19944804  1
  Fe  Fe49  1  0.90285113  0.09714887  0.80055196  1
  Fe  Fe50  1  0.09714887  0.90285113  0.80055196  1
  Fe  Fe51  1  0.40285113  0.40285113  0.30055196  1
  Fe  Fe52  1  0.00000000  0.00000000  0.61600100  1
  Fe  Fe53  1  0.50000000  0.50000000  0.11600100  1
  Fe  Fe54  1  0.50000000  0.50000000  0.88399900  1
  Fe  Fe55  1  0.00000000  0.00000000  0.38399900  1
  Fe  Fe56  1  0.50000000  0.00000000  0.00000000  1
  Fe  Fe57  1  0.50000000  0.00000000  0.50000000  1
  Fe  Fe58  1  0.00000000  0.50000000  0.50000000  1
  Fe  Fe59  1  0.00000000  0.50000000  0.00000000  1
  Er  Er60  1  0.26669773  0.73330227  0.00000000  1
  Er  Er61  1  0.76669773  0.76669773  0.50000000  1
  Er  Er62  1  0.23330227  0.23330227  0.50000000  1
  Er  Er63  1  0.73330227  0.26669773  0.00000000  1
  Er  Er64  1  0.85643555  0.85643555  0.00000000  1
  Er  Er65  1  0.64356445  0.35643555  0.50000000  1
  Er  Er66  1  0.35643555  0.64356445  0.50000000  1
  Er  Er67  1  0.14356445  0.14356445  0.00000000  1
