# generated using pymatgen
data_Ho3(CuGe)4
_symmetry_space_group_name_H-M   'P 1'
_cell_length_a   4.18368952
_cell_length_b   6.65291513
_cell_length_c   7.97773709
_cell_angle_alpha   114.64328435
_cell_angle_beta   105.20125349
_cell_angle_gamma   90.00000003
_symmetry_Int_Tables_number   1
_chemical_formula_structural   Ho3(CuGe)4
_chemical_formula_sum   'Ho3 Cu4 Ge4'
_cell_volume   193.24539840
_cell_formula_units_Z   1
loop_
 _symmetry_equiv_pos_site_id
 _symmetry_equiv_pos_as_xyz
  1  'x, y, z'
loop_
 _atom_site_type_symbol
 _atom_site_label
 _atom_site_symmetry_multiplicity
 _atom_site_fract_x
 _atom_site_fract_y
 _atom_site_fract_z
 _atom_site_occupancy
  Cu  Cu0  1  0.66919882  0.85928554  0.33839765  1
  Cu  Cu1  1  0.33080118  0.14071446  0.66160235  1
  Cu  Cu2  1  0.66919882  0.47911210  0.33839765  1
  Cu  Cu3  1  0.33080118  0.52088790  0.66160235  1
  Ge  Ge4  1  0.78313645  0.28313645  0.56627291  1
  Ge  Ge5  1  0.50000000  0.80806505  0.00000000  1
  Ge  Ge6  1  0.50000000  0.19193495  0.00000000  1
  Ge  Ge7  1  0.21686355  0.71686355  0.43372709  1
  Ho  Ho8  1  0.87014244  0.87014244  0.74028489  1
  Ho  Ho9  1  0.12985756  0.12985756  0.25971511  1
  Ho  Ho10  1  0.00000000  0.50000000  0.00000000  1
