# generated using pymatgen
data_CdPbF6
_symmetry_space_group_name_H-M   'P 1'
_cell_length_a   6.04250770
_cell_length_b   6.04250800
_cell_length_c   6.04250714
_cell_angle_alpha   55.96664719
_cell_angle_beta   55.96664142
_cell_angle_gamma   55.96664756
_symmetry_Int_Tables_number   1
_chemical_formula_structural   CdPbF6
_chemical_formula_sum   'Cd1 Pb1 F6'
_cell_volume   141.42492854
_cell_formula_units_Z   1
loop_
 _symmetry_equiv_pos_site_id
 _symmetry_equiv_pos_as_xyz
  1  'x, y, z'
loop_
 _atom_site_type_symbol
 _atom_site_label
 _atom_site_symmetry_multiplicity
 _atom_site_fract_x
 _atom_site_fract_y
 _atom_site_fract_z
 _atom_site_occupancy
  Cd  Cd0  1  0.50000000  0.50000000  0.50000000  1
  F  F1  1  0.12165774  0.36028035  0.75706413  1
  F  F2  1  0.36028035  0.75706413  0.12165774  1
  F  F3  1  0.75706413  0.12165774  0.36028035  1
  F  F4  1  0.24293587  0.87834226  0.63971965  1
  F  F5  1  0.63971965  0.24293587  0.87834226  1
  F  F6  1  0.87834226  0.63971965  0.24293587  1
  Pb  Pb7  1  0.00000000  0.00000000  0.00000000  1
