# generated using pymatgen
data_Cs2Mn3Se4
_symmetry_space_group_name_H-M   'P 1'
_cell_length_a   6.33240108
_cell_length_b   10.08965697
_cell_length_c   10.08965696
_cell_angle_alpha   74.65907230
_cell_angle_beta   71.71121811
_cell_angle_gamma   71.71121808
_symmetry_Int_Tables_number   1
_chemical_formula_structural   Cs2Mn3Se4
_chemical_formula_sum   'Cs4 Mn6 Se8'
_cell_volume   571.21703998
_cell_formula_units_Z   2
loop_
 _symmetry_equiv_pos_site_id
 _symmetry_equiv_pos_as_xyz
  1  'x, y, z'
loop_
 _atom_site_type_symbol
 _atom_site_label
 _atom_site_symmetry_multiplicity
 _atom_site_fract_x
 _atom_site_fract_y
 _atom_site_fract_z
 _atom_site_occupancy
  Mn  Mn0  1  0.25000000  0.52032005  0.97967995  1
  Mn  Mn1  1  0.25000000  0.97967995  0.52032005  1
  Mn  Mn2  1  0.75000000  0.47967995  0.02032005  1
  Mn  Mn3  1  0.75000000  0.75000000  0.75000000  1
  Mn  Mn4  1  0.25000000  0.25000000  0.25000000  1
  Mn  Mn5  1  0.75000000  0.02032005  0.47967995  1
  Se  Se6  1  0.37301962  0.21389862  0.48085143  1
  Se  Se7  1  0.56776967  0.28610138  0.01914857  1
  Se  Se8  1  0.12698038  0.01914857  0.28610138  1
  Se  Se9  1  0.93223033  0.48085143  0.21389862  1
  Se  Se10  1  0.62698038  0.78610138  0.51914857  1
  Se  Se11  1  0.43223033  0.71389862  0.98085143  1
  Se  Se12  1  0.87301962  0.98085143  0.71389862  1
  Se  Se13  1  0.06776967  0.51914857  0.78610138  1
  Cs  Cs14  1  0.23464597  0.12101245  0.87898755  1
  Cs  Cs15  1  0.73464597  0.37898755  0.62101245  1
  Cs  Cs16  1  0.26535403  0.62101245  0.37898755  1
  Cs  Cs17  1  0.76535403  0.87898755  0.12101245  1
