# generated using pymatgen
data_Na2RuO3
_symmetry_space_group_name_H-M   'P 1'
_cell_length_a   5.66968357
_cell_length_b   16.97532152
_cell_length_c   10.86358762
_cell_angle_alpha   16.27092399
_cell_angle_beta   28.53689867
_cell_angle_gamma   32.50732550
_symmetry_Int_Tables_number   1
_chemical_formula_structural   Na2RuO3
_chemical_formula_sum   'Na4 Ru2 O6'
_cell_volume   139.94720705
_cell_formula_units_Z   2
loop_
 _symmetry_equiv_pos_site_id
 _symmetry_equiv_pos_as_xyz
  1  'x, y, z'
loop_
 _atom_site_type_symbol
 _atom_site_label
 _atom_site_symmetry_multiplicity
 _atom_site_fract_x
 _atom_site_fract_y
 _atom_site_fract_z
 _atom_site_occupancy
  Na  Na0  1  0.00000196  0.98741866  0.01886948  1
  Na  Na1  1  0.99999881  0.34601181  0.98098592  1
  Na  Na2  1  0.99999920  0.66655092  0.00017436  1
  Na  Na3  1  0.50000006  0.66667057  0.49999424  1
  O  O4  1  0.19618217  0.03622543  0.19937628  1
  O  O5  1  0.19644825  0.29702053  0.30804522  1
  O  O6  1  0.30491399  0.66674536  0.20087658  1
  O  O7  1  0.80355334  0.29702168  0.80089063  1
  O  O8  1  0.69508641  0.66674963  0.79888012  1
  O  O9  1  0.80381665  0.03622552  0.69194883  1
  Ru  Ru10  1  0.49999964  0.00034184  0.49948612  1
  Ru  Ru11  1  0.49999952  0.33301804  0.50047221  1
