# generated using pymatgen
data_GdPaO4
_symmetry_space_group_name_H-M   'P 1'
_cell_length_a   7.69787554
_cell_length_b   10.16558327
_cell_length_c   6.63921950
_cell_angle_alpha   29.23685811
_cell_angle_beta   54.56862499
_cell_angle_gamma   40.77774683
_symmetry_Int_Tables_number   1
_chemical_formula_structural   GdPaO4
_chemical_formula_sum   'Gd2 Pa2 O8'
_cell_volume   160.29497056
_cell_formula_units_Z   2
loop_
 _symmetry_equiv_pos_site_id
 _symmetry_equiv_pos_as_xyz
  1  'x, y, z'
loop_
 _atom_site_type_symbol
 _atom_site_label
 _atom_site_symmetry_multiplicity
 _atom_site_fract_x
 _atom_site_fract_y
 _atom_site_fract_z
 _atom_site_occupancy
  Gd  Gd0  1  0.50000067  0.00000000  0.00000000  1
  Gd  Gd1  1  0.24999933  0.50000000  0.00000000  1
  O  O2  1  0.11074637  0.51423474  0.73576786  1
  O  O3  1  0.37501370  0.51423608  0.23576830  1
  O  O4  1  0.11074584  0.01423608  0.23576830  1
  O  O5  1  0.87498372  0.48576526  0.26423214  1
  O  O6  1  0.63925416  0.48576392  0.76423170  1
  O  O7  1  0.63925363  0.98576526  0.26423214  1
  O  O8  1  0.37498630  0.98576392  0.76423170  1
  O  O9  1  0.87501628  0.01423474  0.73576786  1
  Pa  Pa10  1  0.99999899  0.00000000  0.00000000  1
  Pa  Pa11  1  0.75000101  0.50000000  0.00000000  1
