# generated using pymatgen
data_Ca(AlSe2)2
_symmetry_space_group_name_H-M   'P 1'
_cell_length_a   6.22520387
_cell_length_b   6.22520465
_cell_length_c   10.75129307
_cell_angle_alpha   90.00000000
_cell_angle_beta   90.00000000
_cell_angle_gamma   119.56297042
_symmetry_Int_Tables_number   1
_chemical_formula_structural   Ca(AlSe2)2
_chemical_formula_sum   'Ca2 Al4 Se8'
_cell_volume   362.40509433
_cell_formula_units_Z   2
loop_
 _symmetry_equiv_pos_site_id
 _symmetry_equiv_pos_as_xyz
  1  'x, y, z'
loop_
 _atom_site_type_symbol
 _atom_site_label
 _atom_site_symmetry_multiplicity
 _atom_site_fract_x
 _atom_site_fract_y
 _atom_site_fract_z
 _atom_site_occupancy
  Al  Al0  1  0.23621098  0.76003194  0.00000000  1
  Al  Al1  1  0.23996806  0.76378902  0.50000000  1
  Al  Al2  1  0.76003194  0.23621098  0.50000000  1
  Al  Al3  1  0.76378902  0.23996806  0.00000000  1
  Ca  Ca4  1  0.50000000  0.50000000  0.25000000  1
  Ca  Ca5  1  0.50000000  0.50000000  0.75000000  1
  Se  Se6  1  0.00000000  0.50000000  0.17207259  1
  Se  Se7  1  0.19018856  0.34910751  0.50000000  1
  Se  Se8  1  0.34910751  0.19018856  0.00000000  1
  Se  Se9  1  0.65089249  0.80981144  0.00000000  1
  Se  Se10  1  0.50000000  0.00000000  0.32792741  1
  Se  Se11  1  0.50000000  0.00000000  0.67207259  1
  Se  Se12  1  0.80981144  0.65089249  0.50000000  1
  Se  Se13  1  0.00000000  0.50000000  0.82792741  1
