# generated using pymatgen
data_Li4Nb3Cr2Fe3O16
_symmetry_space_group_name_H-M   'P 1'
_cell_length_a   6.11815793
_cell_length_b   6.12093750
_cell_length_c   9.77333534
_cell_angle_alpha   90.40308414
_cell_angle_beta   88.38634072
_cell_angle_gamma   119.94732524
_symmetry_Int_Tables_number   1
_chemical_formula_structural   Li4Nb3Cr2Fe3O16
_chemical_formula_sum   'Li4 Nb3 Cr2 Fe3 O16'
_cell_volume   316.99747007
_cell_formula_units_Z   1
loop_
 _symmetry_equiv_pos_site_id
 _symmetry_equiv_pos_as_xyz
  1  'x, y, z'
loop_
 _atom_site_type_symbol
 _atom_site_label
 _atom_site_symmetry_multiplicity
 _atom_site_fract_x
 _atom_site_fract_y
 _atom_site_fract_z
 _atom_site_occupancy
  Li  Li0  1  0.33759158  0.66816478  0.90440514  1
  Li  Li1  1  0.02184132  0.00787158  0.00177287  1
  Li  Li2  1  0.03440858  0.01711498  0.48602214  1
  Li  Li3  1  0.67553161  0.33546493  0.38285372  1
  Nb  Nb4  1  0.65658690  0.83361697  0.21123962  1
  Nb  Nb5  1  0.82590058  0.66210966  0.71277115  1
  Nb  Nb6  1  0.82246961  0.16369891  0.71187929  1
  Cr  Cr7  1  0.31425445  0.65491545  0.47530100  1
  Cr  Cr8  1  0.65594518  0.33347708  0.99453823  1
  Fe  Fe9  1  0.17450550  0.83353271  0.21308511  1
  Fe  Fe10  1  0.16981703  0.33875340  0.21344287  1
  Fe  Fe11  1  0.33750691  0.16687593  0.71603369  1
  O  O12  1  0.14526375  0.82197990  0.59971551  1
  O  O13  1  0.04404736  0.51518020  0.34219761  1
  O  O14  1  0.34819342  0.65993529  0.09944554  1
  O  O15  1  0.98691407  0.00512198  0.30680280  1
  O  O16  1  0.97774082  0.98890611  0.81590009  1
  O  O17  1  0.14347510  0.32279400  0.60034113  1
  O  O18  1  0.49344408  0.95702122  0.35236704  1
  O  O19  1  0.48171086  0.52367924  0.34411598  1
  O  O20  1  0.33078026  0.17282400  0.09880944  1
  O  O21  1  0.66819968  0.83297877  0.60620819  1
  O  O22  1  0.53151564  0.48770136  0.84256574  1
  O  O23  1  0.53437985  0.04415325  0.84556687  1
  O  O24  1  0.69029907  0.34579782  0.59888385  1
  O  O25  1  0.81349578  0.66366503  0.09791926  1
  O  O26  1  0.96093436  0.48184736  0.83393910  1
  O  O27  1  0.82324664  0.16112008  0.09971403  1
