# generated using pymatgen
data_Sr4Ru2O9
_symmetry_space_group_name_H-M   'P 1'
_cell_length_a   9.76036525
_cell_length_b   9.76036529
_cell_length_c   8.13433231
_cell_angle_alpha   90.00000000
_cell_angle_beta   90.00000000
_cell_angle_gamma   119.99999982
_symmetry_Int_Tables_number   1
_chemical_formula_structural   Sr4Ru2O9
_chemical_formula_sum   'Sr12 Ru6 O27'
_cell_volume   671.09605378
_cell_formula_units_Z   3
loop_
 _symmetry_equiv_pos_site_id
 _symmetry_equiv_pos_as_xyz
  1  'x, y, z'
loop_
 _atom_site_type_symbol
 _atom_site_label
 _atom_site_symmetry_multiplicity
 _atom_site_fract_x
 _atom_site_fract_y
 _atom_site_fract_z
 _atom_site_occupancy
  O  O0  1  0.01114464  0.83607687  0.27602608  1
  O  O1  1  0.15193571  0.64439881  0.75314496  1
  O  O2  1  0.31926113  0.82412056  0.03229338  1
  O  O3  1  0.31045919  0.82363998  0.47583386  1
  O  O4  1  1.00000000  0.16607983  0.00000000  1
  O  O5  1  0.17587944  0.49514057  0.03229338  1
  O  O6  1  0.17636002  0.48681921  0.47583386  1
  O  O7  1  0.49246310  0.84806429  0.75314496  1
  O  O8  1  0.16392313  0.17506777  0.27602608  1
  O  O9  1  0.17506777  0.16392313  0.72397392  1
  O  O10  1  0.35560119  0.50753690  0.75314496  1
  O  O11  1  0.16607983  0.00000000  0.00000000  1
  O  O12  1  0.50485943  0.68073887  0.03229338  1
  O  O13  1  0.51318079  0.68954081  0.47583386  1
  O  O14  1  0.82493223  0.98885536  0.27602608  1
  O  O15  1  0.50753690  0.35560119  0.24685504  1
  O  O16  1  0.48681921  0.17636002  0.52416614  1
  O  O17  1  0.49514057  0.17587944  0.96770662  1
  O  O18  1  0.83392017  0.83392017  0.00000000  1
  O  O19  1  0.68954081  0.51318079  0.52416614  1
  O  O20  1  0.68073887  0.50485943  0.96770662  1
  O  O21  1  0.64439881  0.15193571  0.24685504  1
  O  O22  1  0.98885536  0.82493223  0.72397392  1
  O  O23  1  0.84806429  0.49246310  0.24685504  1
  O  O24  1  0.82412056  0.31926113  0.96770662  1
  O  O25  1  0.82363998  0.31045919  0.52416614  1
  O  O26  1  0.83607687  0.01114464  0.72397392  1
  Ru  Ru27  1  0.00000000  0.00000000  0.84413192  1
  Ru  Ru28  1  0.33333300  0.66666700  0.91208112  1
  Ru  Ru29  1  0.33333300  0.66666700  0.59600023  1
  Ru  Ru30  1  0.66666700  0.33333300  0.40399977  1
  Ru  Ru31  1  0.66666700  0.33333300  0.08791888  1
  Ru  Ru32  1  0.00000000  0.00000000  0.15586808  1
  Sr  Sr33  1  1.00000000  0.67355047  0.00000000  1
  Sr  Sr34  1  0.00000000  0.65565226  0.50000000  1
  Sr  Sr35  1  0.32095059  0.98612901  0.75293219  1
  Sr  Sr36  1  0.01387099  0.33482159  0.75293219  1
  Sr  Sr37  1  0.34434774  0.34434774  0.50000000  1
  Sr  Sr38  1  0.32644953  0.32644953  0.00000000  1
  Sr  Sr39  1  0.66517841  0.67904941  0.75293219  1
  Sr  Sr40  1  0.33482159  0.01387099  0.24706781  1
  Sr  Sr41  1  0.67904941  0.66517841  0.24706781  1
  Sr  Sr42  1  0.65565226  0.00000000  0.50000000  1
  Sr  Sr43  1  0.67355047  0.00000000  0.00000000  1
  Sr  Sr44  1  0.98612901  0.32095059  0.24706781  1
