# generated using pymatgen
data_Li3ErBr6
_symmetry_space_group_name_H-M   'P 1'
_cell_length_a   13.88066365
_cell_length_b   6.88794071
_cell_length_c   6.88794085
_cell_angle_alpha   119.58740650
_cell_angle_beta   99.77921981
_cell_angle_gamma   99.77922002
_symmetry_Int_Tables_number   1
_chemical_formula_structural   Li3ErBr6
_chemical_formula_sum   'Li6 Er2 Br12'
_cell_volume   539.05544081
_cell_formula_units_Z   2
loop_
 _symmetry_equiv_pos_site_id
 _symmetry_equiv_pos_as_xyz
  1  'x, y, z'
loop_
 _atom_site_type_symbol
 _atom_site_label
 _atom_site_symmetry_multiplicity
 _atom_site_fract_x
 _atom_site_fract_y
 _atom_site_fract_z
 _atom_site_occupancy
  Br  Br0  1  0.11969838  0.75355525  0.74397600  1
  Br  Br1  1  0.12141990  0.40588776  0.06875986  1
  Br  Br2  1  0.11904728  0.07908531  0.41731316  1
  Br  Br3  1  0.38095272  0.58268684  0.92091469  1
  Br  Br4  1  0.37858010  0.93124014  0.59411224  1
  Br  Br5  1  0.38030162  0.25602400  0.24644475  1
  Br  Br6  1  0.61969838  0.74397600  0.75355525  1
  Br  Br7  1  0.61904728  0.41731316  0.07908531  1
  Br  Br8  1  0.62141990  0.06875986  0.40588776  1
  Br  Br9  1  0.88095272  0.92091469  0.58268684  1
  Br  Br10  1  0.87858010  0.59411224  0.93124014  1
  Br  Br11  1  0.88030162  0.24644475  0.25602400  1
  Er  Er12  1  0.00000000  0.00000000  0.00000000  1
  Er  Er13  1  0.50000000  0.00000000  0.00000000  1
  Li  Li14  1  0.00031046  0.32578726  0.66272464  1
  Li  Li15  1  0.25000000  0.15711381  0.84288619  1
  Li  Li16  1  0.49968954  0.33727536  0.67421274  1
  Li  Li17  1  0.50031046  0.66272464  0.32578726  1
  Li  Li18  1  0.75000000  0.84288619  0.15711381  1
  Li  Li19  1  0.99968954  0.67421274  0.33727536  1
