# generated using pymatgen
data_Li3RuO4
_symmetry_space_group_name_H-M   'P 1'
_cell_length_a   5.13099424
_cell_length_b   5.18208967
_cell_length_c   5.94067557
_cell_angle_alpha   90.00000000
_cell_angle_beta   90.00000000
_cell_angle_gamma   110.08237074
_symmetry_Int_Tables_number   1
_chemical_formula_structural   Li3RuO4
_chemical_formula_sum   'Li6 Ru2 O8'
_cell_volume   148.35437098
_cell_formula_units_Z   2
loop_
 _symmetry_equiv_pos_site_id
 _symmetry_equiv_pos_as_xyz
  1  'x, y, z'
loop_
 _atom_site_type_symbol
 _atom_site_label
 _atom_site_symmetry_multiplicity
 _atom_site_fract_x
 _atom_site_fract_y
 _atom_site_fract_z
 _atom_site_occupancy
  Li  Li0  1  0.25000000  0.50000000  0.13240995  1
  Li  Li1  1  0.25000000  0.50000000  0.60897974  1
  Li  Li2  1  0.25000000  0.00000000  0.37868126  1
  Li  Li3  1  0.75000000  0.50000000  0.39102026  1
  Li  Li4  1  0.75000000  0.50000000  0.86759005  1
  Li  Li5  1  0.75000000  0.00000000  0.62131874  1
  O  O6  1  0.99512288  0.77308094  0.11322938  1
  O  O7  1  0.49512288  0.77308094  0.88677062  1
  O  O8  1  0.48233613  0.24168304  0.63982451  1
  O  O9  1  0.01766387  0.75831696  0.63982451  1
  O  O10  1  0.98233613  0.24168304  0.36017549  1
  O  O11  1  0.51766387  0.75831696  0.36017549  1
  O  O12  1  0.50487712  0.22691906  0.11322938  1
  O  O13  1  0.00487712  0.22691906  0.88677062  1
  Ru  Ru14  1  0.75000000  0.00000000  0.14266960  1
  Ru  Ru15  1  0.25000000  0.00000000  0.85733040  1
