# generated using pymatgen
data_Na2HF4
_symmetry_space_group_name_H-M   'P 1'
_cell_length_a   4.79235728
_cell_length_b   9.59336289
_cell_length_c   8.89707275
_cell_angle_alpha   21.96391525
_cell_angle_beta   39.18026252
_cell_angle_gamma   44.03621488
_symmetry_Int_Tables_number   1
_chemical_formula_structural   Na2HF4
_chemical_formula_sum   'Na2 H1 F4'
_cell_volume   96.65375663
_cell_formula_units_Z   1
loop_
 _symmetry_equiv_pos_site_id
 _symmetry_equiv_pos_as_xyz
  1  'x, y, z'
loop_
 _atom_site_type_symbol
 _atom_site_label
 _atom_site_symmetry_multiplicity
 _atom_site_fract_x
 _atom_site_fract_y
 _atom_site_fract_z
 _atom_site_occupancy
  F  F0  1  0.41959609  0.00000000  0.42478451  1
  F  F1  1  0.42019481  0.50000000  0.40776251  1
  F  F2  1  0.57980519  0.50000000  0.59223749  1
  F  F3  1  0.58040391  1.00000000  0.57521549  1
  H  H4  1  0.50000000  0.50000000  0.50000000  1
  Na  Na5  1  0.00000000  0.00000000  0.00000000  1
  Na  Na6  1  0.00000000  0.50000000  0.00000000  1
