# generated using pymatgen
data_KBH4
_symmetry_space_group_name_H-M   'P 1'
_cell_length_a   4.72791200
_cell_length_b   9.44665474
_cell_length_c   8.17834679
_cell_angle_alpha   30.02934171
_cell_angle_beta   54.68289911
_cell_angle_gamma   59.96788644
_symmetry_Int_Tables_number   1
_chemical_formula_structural   KBH4
_chemical_formula_sum   'K2 B2 H8'
_cell_volume   149.15558482
_cell_formula_units_Z   2
loop_
 _symmetry_equiv_pos_site_id
 _symmetry_equiv_pos_as_xyz
  1  'x, y, z'
loop_
 _atom_site_type_symbol
 _atom_site_label
 _atom_site_symmetry_multiplicity
 _atom_site_fract_x
 _atom_site_fract_y
 _atom_site_fract_z
 _atom_site_occupancy
  B  B0  1  0.49996975  0.49996238  0.50006787  1
  B  B1  1  0.50003027  0.00003761  0.49993212  1
  H  H2  1  0.39539454  0.00000457  0.39281151  1
  H  H3  1  0.39281595  0.21184012  0.39534393  1
  H  H4  1  0.81897330  0.00000457  0.39281151  1
  H  H5  1  0.18102668  0.49999542  0.60718851  1
  H  H6  1  0.60718404  0.28815989  0.60465607  1
  H  H7  1  0.60721175  0.71187838  0.18090987  1
  H  H8  1  0.60460546  0.49999542  0.60718851  1
  H  H9  1  0.39278823  0.78812161  0.81909016  1
  K  K10  1  0.00000473  0.00000241  0.99999286  1
  K  K11  1  0.99999530  0.49999761  0.00000709  1
