# generated using pymatgen
data_LiNiP2O7
_symmetry_space_group_name_H-M   'P 1'
_cell_length_a   5.02363543
_cell_length_b   8.42323864
_cell_length_c   6.92560595
_cell_angle_alpha   90.00000000
_cell_angle_beta   109.20446576
_cell_angle_gamma   90.00000000
_symmetry_Int_Tables_number   1
_chemical_formula_structural   LiNiP2O7
_chemical_formula_sum   'Li2 Ni2 P4 O14'
_cell_volume   276.75043990
_cell_formula_units_Z   2
loop_
 _symmetry_equiv_pos_site_id
 _symmetry_equiv_pos_as_xyz
  1  'x, y, z'
loop_
 _atom_site_type_symbol
 _atom_site_label
 _atom_site_symmetry_multiplicity
 _atom_site_fract_x
 _atom_site_fract_y
 _atom_site_fract_z
 _atom_site_occupancy
  Li  Li0  1  0.23130948  0.48712815  0.74598546  1
  Li  Li1  1  0.76869052  0.98712815  0.25401454  1
  Ni  Ni2  1  0.19259912  0.85071233  0.68144559  1
  Ni  Ni3  1  0.80740088  0.35071233  0.31855441  1
  P  P4  1  0.39635975  0.18349217  0.53878810  1
  P  P5  1  0.18566187  0.79155987  0.05318904  1
  P  P6  1  0.81433813  0.29155987  0.94681096  1
  P  P7  1  0.60364025  0.68349217  0.46121190  1
  O  O8  1  0.05467910  0.33290260  0.87596642  1
  O  O9  1  0.10871826  0.68711047  0.85623320  1
  O  O10  1  0.24049491  0.02449552  0.51423532  1
  O  O11  1  0.20319754  0.32956369  0.50907142  1
  O  O12  1  0.41249699  0.68434044  0.59324208  1
  O  O13  1  0.67031720  0.43381421  0.01829074  1
  O  O14  1  0.58431565  0.18767157  0.77932833  1
  O  O15  1  0.41568435  0.68767157  0.22067167  1
  O  O16  1  0.32968280  0.93381421  0.98170926  1
  O  O17  1  0.58750301  0.18434044  0.40675792  1
  O  O18  1  0.79680246  0.82956369  0.49092858  1
  O  O19  1  0.75950509  0.52449552  0.48576468  1
  O  O20  1  0.89128174  0.18711047  0.14376680  1
  O  O21  1  0.94532090  0.83290260  0.12403358  1
