# generated using pymatgen
data_Sc(TiN)9
_symmetry_space_group_name_H-M   'P 1'
_cell_length_a   6.04335480
_cell_length_b   16.85282808
_cell_length_c   8.01241601
_cell_angle_alpha   18.07372895
_cell_angle_beta   55.47239852
_cell_angle_gamma   51.05796869
_symmetry_Int_Tables_number   1
_chemical_formula_structural   Sc(TiN)9
_chemical_formula_sum   'Sc1 Ti9 N9'
_cell_volume   195.30943354
_cell_formula_units_Z   1
loop_
 _symmetry_equiv_pos_site_id
 _symmetry_equiv_pos_as_xyz
  1  'x, y, z'
loop_
 _atom_site_type_symbol
 _atom_site_label
 _atom_site_symmetry_multiplicity
 _atom_site_fract_x
 _atom_site_fract_y
 _atom_site_fract_z
 _atom_site_occupancy
  N  N0  1  0.99143278  0.00645853  0.98858962  1
  N  N1  1  0.50110628  0.00629715  0.99189417  1
  N  N2  1  0.29889372  0.39370285  0.00810583  1
  N  N3  1  0.90000000  0.20000000  0.00000000  1
  N  N4  1  0.19606061  0.59779309  0.01061441  1
  N  N5  1  0.80856722  0.39354147  0.01141038  1
  N  N6  1  0.10253330  0.79722575  0.00417198  1
  N  N7  1  0.69746670  0.60277425  0.99582802  1
  N  N8  1  0.60393939  0.80220691  0.98938559  1
  Sc  Sc9  1  0.40000000  0.70000000  0.50000000  1
  Ti  Ti10  1  0.19361979  0.09204256  0.52616066  1
  Ti  Ti11  1  0.09113773  0.30400551  0.49863884  1
  Ti  Ti12  1  0.70886227  0.09599449  0.50136116  1
  Ti  Ti13  1  0.60638021  0.30795744  0.47383934  1
  Ti  Ti14  1  0.50156537  0.51489413  0.47137286  1
  Ti  Ti15  1  0.98619977  0.50791424  0.48971102  1
  Ti  Ti16  1  0.29843463  0.88510587  0.52862714  1
  Ti  Ti17  1  0.90000000  0.70000000  0.50000000  1
  Ti  Ti18  1  0.81380023  0.89208576  0.51028898  1
