# generated using pymatgen
data_Ag7NO11
_symmetry_space_group_name_H-M   'P 1'
_cell_length_a   7.21653299
_cell_length_b   7.08496840
_cell_length_c   7.05652658
_cell_angle_alpha   61.36844759
_cell_angle_beta   59.50996925
_cell_angle_gamma   59.12157558
_symmetry_Int_Tables_number   1
_chemical_formula_structural   Ag7NO11
_chemical_formula_sum   'Ag7 N1 O11'
_cell_volume   254.89181513
_cell_formula_units_Z   1
loop_
 _symmetry_equiv_pos_site_id
 _symmetry_equiv_pos_as_xyz
  1  'x, y, z'
loop_
 _atom_site_type_symbol
 _atom_site_label
 _atom_site_symmetry_multiplicity
 _atom_site_fract_x
 _atom_site_fract_y
 _atom_site_fract_z
 _atom_site_occupancy
  Ag  Ag0  1  0.00306188  0.49789649  0.99693812  1
  Ag  Ag1  1  0.51060435  0.00170764  0.99829236  1
  Ag  Ag2  1  0.00170764  0.51060435  0.48939565  1
  Ag  Ag3  1  0.49789649  0.00306188  0.50210351  1
  Ag  Ag4  1  0.50195581  0.50195581  0.99804419  1
  Ag  Ag5  1  0.50218332  0.50218332  0.49781668  1
  Ag  Ag6  1  0.00195581  0.00195581  0.49804419  1
  N  N7  1  0.98975578  0.98975578  0.01024422  1
  O  O8  1  0.15861021  0.94194023  0.05805977  1
  O  O9  1  0.36748021  0.36146012  0.35606234  1
  O  O10  1  0.08500267  0.64393766  0.63853988  1
  O  O11  1  0.64393766  0.08500267  0.63251979  1
  O  O12  1  0.64477876  0.63362198  0.08082711  1
  O  O13  1  0.36146012  0.36748021  0.91499733  1
  O  O14  1  0.35922785  0.91917289  0.36637802  1
  O  O15  1  0.91917289  0.35922785  0.35522124  1
  O  O16  1  0.63362198  0.64477876  0.64077215  1
  O  O17  1  0.86564634  0.86564634  0.13435366  1
  O  O18  1  0.94194023  0.15861021  0.84138979  1
