# generated using pymatgen
data_Na(La2Se3)4
_symmetry_space_group_name_H-M   'P 1'
_cell_length_a   23.64878994
_cell_length_b   9.09689191
_cell_length_c   9.09689245
_cell_angle_alpha   89.99999967
_cell_angle_beta   54.76022813
_cell_angle_gamma   54.76022575
_symmetry_Int_Tables_number   1
_chemical_formula_structural   Na(La2Se3)4
_chemical_formula_sum   'Na2 La16 Se24'
_cell_volume   1131.25739497
_cell_formula_units_Z   2
loop_
 _symmetry_equiv_pos_site_id
 _symmetry_equiv_pos_as_xyz
  1  'x, y, z'
loop_
 _atom_site_type_symbol
 _atom_site_label
 _atom_site_symmetry_multiplicity
 _atom_site_fract_x
 _atom_site_fract_y
 _atom_site_fract_z
 _atom_site_occupancy
  La  La0  1  0.99711859  0.38546029  0.25075379  1
  La  La1  1  0.99711859  0.12318393  0.75789043  1
  La  La2  1  0.08301529  0.62547656  0.37547656  1
  La  La3  1  0.16666700  0.25000000  0.62989351  1
  La  La4  1  0.33621441  0.37681607  0.24924621  1
  La  La5  1  0.25031771  0.87452344  0.12452344  1
  La  La6  1  0.33621441  0.11453971  0.74210957  1
  La  La7  1  0.16666700  0.75000000  0.87010649  1
  La  La8  1  0.49711859  0.25789043  0.62318393  1
  La  La9  1  0.66666700  0.37010649  0.25000000  1
  La  La10  1  0.58301529  0.87547656  0.12547656  1
  La  La11  1  0.66666700  0.12989351  0.75000000  1
  La  La12  1  0.49711859  0.75075379  0.88546029  1
  La  La13  1  0.75031771  0.62452344  0.37452344  1
  La  La14  1  0.83621441  0.24210957  0.61453971  1
  La  La15  1  0.83621441  0.74924621  0.87681607  1
  Na  Na16  1  0.41666700  0.62500000  0.37500000  1
  Na  Na17  1  0.91666700  0.87500000  0.12500000  1
  Se  Se18  1  0.05034608  0.99999346  0.35030222  1
  Se  Se19  1  0.12247123  0.49262097  0.99551719  1
  Se  Se20  1  0.05034608  0.34896731  0.49865856  1
  Se  Se21  1  0.28298692  0.15103269  0.14969778  1
  Se  Se22  1  0.28298692  0.50000654  0.00134144  1
  Se  Se23  1  0.12247123  0.63996433  0.63706811  1
  Se  Se24  1  0.38450443  -0.00047245  0.34607410  1
  Se  Se25  1  0.21086177  0.86003567  0.50448281  1
  Se  Se26  1  0.44882957  0.49958639  1.00047245  1
  Se  Se27  1  0.38450443  0.34696016  0.50041361  1
  Se  Se28  1  0.21086177  0.00737903  0.86293189  1
  Se  Se29  1  0.62247123  0.13706811  0.13996433  1
  Se  Se30  1  0.62247123  0.49551719  0.99262097  1
  Se  Se31  1  0.44882957  0.65392590  0.65303984  1
  Se  Se32  1  0.71086177  0.00448281  0.36003567  1
  Se  Se33  1  0.55034608  0.85030222  0.49999346  1
  Se  Se34  1  0.78298692  0.50134144  0.00000654  1
  Se  Se35  1  0.71086177  0.36293189  0.50737903  1
  Se  Se36  1  0.55034608  0.99865856  0.84896731  1
  Se  Se37  1  0.94882957  0.15303984  0.15392590  1
  Se  Se38  1  0.94882957  0.50047245  0.99958639  1
  Se  Se39  1  0.78298692  0.64969778  0.65103269  1
  Se  Se40  1  0.88450443  0.84607410  0.49952755  1
  Se  Se41  1  0.88450443  0.00041361  0.84696016  1
