# generated using pymatgen
data_Li7BiO6
_symmetry_space_group_name_H-M   'P 1'
_cell_length_a   5.52968011
_cell_length_b   5.58373182
_cell_length_c   6.04743943
_cell_angle_alpha   63.55846578
_cell_angle_beta   64.54601577
_cell_angle_gamma   60.93567682
_symmetry_Int_Tables_number   1
_chemical_formula_structural   Li7BiO6
_chemical_formula_sum   'Li7 Bi1 O6'
_cell_volume   140.59469425
_cell_formula_units_Z   1
loop_
 _symmetry_equiv_pos_site_id
 _symmetry_equiv_pos_as_xyz
  1  'x, y, z'
loop_
 _atom_site_type_symbol
 _atom_site_label
 _atom_site_symmetry_multiplicity
 _atom_site_fract_x
 _atom_site_fract_y
 _atom_site_fract_z
 _atom_site_occupancy
  Bi  Bi0  1  0.00849465  0.97890674  0.00598795  1
  Li  Li1  1  0.10988492  0.74253750  0.61703844  1
  Li  Li2  1  0.47143570  0.15123405  0.61368375  1
  Li  Li3  1  0.35750084  0.33541077  0.98939262  1
  Li  Li4  1  0.62668676  0.63428682  0.05240074  1
  Li  Li5  1  0.50530609  0.89508678  0.37130355  1
  Li  Li6  1  0.91158706  0.23285437  0.35391535  1
  Li  Li7  1  0.80293571  0.49130353  0.62138758  1
  O  O8  1  0.09133968  0.37251827  0.78616561  1
  O  O9  1  0.24337595  0.91725345  0.24135309  1
  O  O10  1  0.62186434  0.22236672  0.23573285  1
  O  O11  1  0.39784672  0.75497242  0.75747338  1
  O  O12  1  0.78108551  0.09744067  0.73363582  1
  O  O13  1  0.88065607  0.61882792  0.24252930  1
