# generated using pymatgen
data_La2Au5F21
_symmetry_space_group_name_H-M   'P 1'
_cell_length_a   8.53988277
_cell_length_b   8.53988277
_cell_length_c   26.65907724
_cell_angle_alpha   90.00000000
_cell_angle_beta   90.00000000
_cell_angle_gamma   90.00000000
_symmetry_Int_Tables_number   1
_chemical_formula_structural   La2Au5F21
_chemical_formula_sum   'La8 Au20 F84'
_cell_volume   1944.23577884
_cell_formula_units_Z   4
loop_
 _symmetry_equiv_pos_site_id
 _symmetry_equiv_pos_as_xyz
  1  'x, y, z'
loop_
 _atom_site_type_symbol
 _atom_site_label
 _atom_site_symmetry_multiplicity
 _atom_site_fract_x
 _atom_site_fract_y
 _atom_site_fract_z
 _atom_site_occupancy
  F  F0  1  0.58081439  0.29797797  0.88550892  1
  F  F1  1  0.41918561  0.70202203  0.38550892  1
  F  F2  1  0.29797797  0.58081439  0.11449108  1
  F  F3  1  0.79797797  0.91918561  0.63550892  1
  F  F4  1  0.20202203  0.08081439  0.13550892  1
  F  F5  1  0.91918561  0.79797797  0.36449108  1
  F  F6  1  0.08081439  0.20202203  0.86449108  1
  F  F7  1  0.70202203  0.41918561  0.61449108  1
  F  F8  1  0.71657495  0.09046921  0.05577753  1
  F  F9  1  0.28342505  0.90953079  0.55577753  1
  F  F10  1  0.09046921  0.71657495  0.94422247  1
  F  F11  1  0.59046921  0.78342505  0.80577753  1
  F  F12  1  0.40953079  0.21657495  0.30577753  1
  F  F13  1  0.78342505  0.59046921  0.19422247  1
  F  F14  1  0.21657495  0.40953079  0.69422247  1
  F  F15  1  0.90953079  0.28342505  0.44422247  1
  F  F16  1  0.97684345  0.85868326  0.14126615  1
  F  F17  1  0.02315655  0.14131674  0.64126615  1
  F  F18  1  0.85868326  0.97684345  0.85873385  1
  F  F19  1  0.35868326  0.52315655  0.89126615  1
  F  F20  1  0.64131674  0.47684345  0.39126615  1
  F  F21  1  0.52315655  0.35868326  0.10873385  1
  F  F22  1  0.47684345  0.64131674  0.60873385  1
  F  F23  1  0.14131674  0.02315655  0.35873385  1
  F  F24  1  0.31224386  0.95869600  0.04600879  1
  F  F25  1  0.68775614  0.04130400  0.54600879  1
  F  F26  1  0.95869600  0.31224386  0.95399121  1
  F  F27  1  0.54130400  0.81224386  0.29600879  1
  F  F28  1  0.45869600  0.18775614  0.79600879  1
  F  F29  1  0.29432351  0.93577321  0.24792591  1
  F  F30  1  0.70567649  0.06422679  0.74792591  1
  F  F31  1  0.93577321  0.29432351  0.75207409  1
  F  F32  1  0.06422679  0.70567649  0.25207409  1
  F  F33  1  0.56422679  0.79432351  0.49792591  1
  F  F34  1  0.20567649  0.43577321  0.00207409  1
  F  F35  1  0.79432351  0.56422679  0.50207409  1
  F  F36  1  0.20069135  0.41677642  0.58953524  1
  F  F37  1  0.08322358  0.70069135  0.83953524  1
  F  F38  1  0.91677642  0.29930865  0.33953524  1
  F  F39  1  0.70069135  0.08322358  0.16046476  1
  F  F40  1  0.29930865  0.91677642  0.66046476  1
  F  F41  1  0.79930865  0.58322358  0.08953524  1
  F  F42  1  0.41677642  0.20069135  0.41046476  1
  F  F43  1  0.58322358  0.79930865  0.91046476  1
  F  F44  1  0.44661197  0.18177969  0.68933188  1
  F  F45  1  0.31822031  0.94661197  0.93933188  1
  F  F46  1  0.68177969  0.05338803  0.43933188  1
  F  F47  1  0.94661197  0.31822031  0.06066812  1
  F  F48  1  0.05338803  0.68177969  0.56066812  1
  F  F49  1  0.55338803  0.81822031  0.18933188  1
  F  F50  1  0.18177969  0.44661197  0.31066812  1
  F  F51  1  0.81822031  0.55338803  0.81066812  1
  F  F52  1  0.33389638  0.56736713  0.50004225  1
  F  F53  1  0.93263287  0.83389638  0.75004225  1
  F  F54  1  0.06736713  0.16610362  0.25004225  1
  F  F55  1  0.83389638  0.93263287  0.24995775  1
  F  F56  1  0.16610362  0.06736713  0.74995775  1
  F  F57  1  0.66610362  0.43263287  0.00004225  1
  F  F58  1  0.56736713  0.33389638  0.49995775  1
  F  F59  1  0.43263287  0.66610362  0.99995775  1
  F  F60  1  0.18433495  0.43249021  0.41411079  1
  F  F61  1  0.06750979  0.68433495  0.66411079  1
  F  F62  1  0.93249021  0.31566505  0.16411079  1
  F  F63  1  0.68433495  0.06750979  0.33588921  1
  F  F64  1  0.31566505  0.93249021  0.83588921  1
  F  F65  1  0.81566505  0.56750979  0.91411079  1
  F  F66  1  0.43249021  0.18433495  0.58588921  1
  F  F67  1  0.56750979  0.81566505  0.08588921  1
  F  F68  1  0.22564003  0.22564003  0.50000000  1
  F  F69  1  0.27435997  0.72564003  0.75000000  1
  F  F70  1  0.72564003  0.27435997  0.25000000  1
  F  F71  1  0.77435997  0.77435997  0.00000000  1
  F  F72  1  0.91742054  0.27488946  0.55079107  1
  F  F73  1  0.22511054  0.41742054  0.80079107  1
  F  F74  1  0.77488946  0.58257946  0.30079107  1
  F  F75  1  0.41742054  0.22511054  0.19920893  1
  F  F76  1  0.58257946  0.77488946  0.69920893  1
  F  F77  1  0.08257946  0.72511054  0.05079107  1
  F  F78  1  0.27488946  0.91742054  0.44920893  1
  F  F79  1  0.72511054  0.08257946  0.94920893  1
  F  F80  1  0.04130400  0.68775614  0.45399121  1
  F  F81  1  0.81224386  0.54130400  0.70399121  1
  F  F82  1  0.18775614  0.45869600  0.20399121  1
  F  F83  1  0.43577321  0.20567649  0.99792591  1
  La  La84  1  0.07132168  0.44836075  0.50183100  1
  La  La85  1  0.05163925  0.57132168  0.75183100  1
  La  La86  1  0.94836075  0.42867832  0.25183100  1
  La  La87  1  0.57132168  0.05163925  0.24816900  1
  La  La88  1  0.42867832  0.94836075  0.74816900  1
  La  La89  1  0.92867832  0.55163925  0.00183100  1
  La  La90  1  0.44836075  0.07132168  0.49816900  1
  La  La91  1  0.55163925  0.92867832  0.99816900  1
  Au  Au92  1  0.20406203  0.82080268  0.88919107  1
  Au  Au93  1  0.79593797  0.17919732  0.38919107  1
  Au  Au94  1  0.82080268  0.20406203  0.11080893  1
  Au  Au95  1  0.32080268  0.29593797  0.63919107  1
  Au  Au96  1  0.67919732  0.70406203  0.13919107  1
  Au  Au97  1  0.29593797  0.32080268  0.36080893  1
  Au  Au98  1  0.70406203  0.67919732  0.86080893  1
  Au  Au99  1  0.17919732  0.79593797  0.61080893  1
  Au  Au100  1  0.56461076  0.56461076  0.50000000  1
  Au  Au101  1  0.93538924  0.06461076  0.75000000  1
  Au  Au102  1  0.06461076  0.93538924  0.25000000  1
  Au  Au103  1  0.43538924  0.43538924  0.00000000  1
  Au  Au104  1  0.64464687  0.59574908  0.65591358  1
  Au  Au105  1  0.90425092  0.14464687  0.90591358  1
  Au  Au106  1  0.09574908  0.85535313  0.40591358  1
  Au  Au107  1  0.14464687  0.90425092  0.09408642  1
  Au  Au108  1  0.85535313  0.09574908  0.59408642  1
  Au  Au109  1  0.35535313  0.40425092  0.15591358  1
  Au  Au110  1  0.59574908  0.64464687  0.34408642  1
  Au  Au111  1  0.40425092  0.35535313  0.84408642  1
