# generated using pymatgen
data_SiPd
_symmetry_space_group_name_H-M   'P 1'
_cell_length_a   3.47649346
_cell_length_b   5.62856977
_cell_length_c   6.17890533
_cell_angle_alpha   90.00000000
_cell_angle_beta   90.00000000
_cell_angle_gamma   90.00000000
_symmetry_Int_Tables_number   1
_chemical_formula_structural   SiPd
_chemical_formula_sum   'Si4 Pd4'
_cell_volume   120.90687929
_cell_formula_units_Z   4
loop_
 _symmetry_equiv_pos_site_id
 _symmetry_equiv_pos_as_xyz
  1  'x, y, z'
loop_
 _atom_site_type_symbol
 _atom_site_label
 _atom_site_symmetry_multiplicity
 _atom_site_fract_x
 _atom_site_fract_y
 _atom_site_fract_z
 _atom_site_occupancy
  Si  Si0  1  0.25000000  0.67731084  0.92686352  1
  Si  Si1  1  0.75000000  0.32268916  0.07313648  1
  Si  Si2  1  0.25000000  0.17731084  0.57313648  1
  Si  Si3  1  0.75000000  0.82268916  0.42686352  1
  Pd  Pd4  1  0.25000000  0.50423102  0.30892475  1
  Pd  Pd5  1  0.75000000  0.49576898  0.69107525  1
  Pd  Pd6  1  0.25000000  0.00423102  0.19107525  1
  Pd  Pd7  1  0.75000000  0.99576898  0.80892475  1
