# generated using pymatgen
data_HfNbB4
_symmetry_space_group_name_H-M   'P 1'
_cell_length_a   3.13276455
_cell_length_b   6.25619362
_cell_length_c   4.62732960
_cell_angle_alpha   47.46318334
_cell_angle_beta   109.78592284
_cell_angle_gamma   120.04937379
_symmetry_Int_Tables_number   1
_chemical_formula_structural   HfNbB4
_chemical_formula_sum   'Hf1 Nb1 B4'
_cell_volume   57.84392040
_cell_formula_units_Z   1
loop_
 _symmetry_equiv_pos_site_id
 _symmetry_equiv_pos_as_xyz
  1  'x, y, z'
loop_
 _atom_site_type_symbol
 _atom_site_label
 _atom_site_symmetry_multiplicity
 _atom_site_fract_x
 _atom_site_fract_y
 _atom_site_fract_z
 _atom_site_occupancy
  B  B0  1  0.33378392  0.58386298  0.49984188  1
  B  B1  1  0.66622003  0.91629816  0.49984374  1
  B  B2  1  0.66621608  0.41613702  0.50015812  1
  B  B3  1  0.33377997  0.08370184  0.50015626  1
  Hf  Hf4  1  0.00000000  0.50000000  0.00000000  1
  Nb  Nb5  1  0.00000000  0.00000000  0.00000000  1
