# generated using pymatgen
data_Rb(WO3)6
_symmetry_space_group_name_H-M   'P 1'
_cell_length_a   7.51771785
_cell_length_b   15.04472440
_cell_length_c   7.73045432
_cell_angle_alpha   90.00000000
_cell_angle_beta   90.00000000
_cell_angle_gamma   119.97957848
_symmetry_Int_Tables_number   1
_chemical_formula_structural   Rb(WO3)6
_chemical_formula_sum   'Rb2 W12 O36'
_cell_volume   757.34757851
_cell_formula_units_Z   2
loop_
 _symmetry_equiv_pos_site_id
 _symmetry_equiv_pos_as_xyz
  1  'x, y, z'
loop_
 _atom_site_type_symbol
 _atom_site_label
 _atom_site_symmetry_multiplicity
 _atom_site_fract_x
 _atom_site_fract_y
 _atom_site_fract_z
 _atom_site_occupancy
  Rb  Rb0  1  -0.00000000  -0.00000000  -0.00000000  1
  Rb  Rb1  1  -0.00000000  0.50000000  0.50000000  1
  W  W2  1  0.00036084  0.75286685  0.74861155  1
  W  W3  1  0.49462614  0.74713315  0.75138845  1
  W  W4  1  0.00036084  0.25286785  0.75138845  1
  W  W5  1  0.50537386  0.75286685  0.25138845  1
  W  W6  1  0.49424132  0.50000000  0.24924139  1
  W  W7  1  0.50575868  0.50000000  0.75075861  1
  W  W8  1  0.49462614  0.24713315  0.74861155  1
  W  W9  1  0.50537386  0.25286785  0.24861155  1
  W  W10  1  0.99963916  0.74713315  0.24861155  1
  W  W11  1  0.49424132  -0.00000000  0.25075861  1
  W  W12  1  0.50575868  -0.00000000  0.74924139  1
  W  W13  1  0.99963916  0.24713315  0.25138845  1
  O  O14  1  0.00011952  0.74997223  0.99937765  1
  O  O15  1  0.21089850  0.89341534  0.24753700  1
  O  O16  1  0.21336790  0.89467285  0.75188280  1
  O  O17  1  0.21079805  0.71213137  0.74753562  1
  O  O18  1  0.21346469  0.71213137  0.25246438  1
  O  O19  1  0.57597880  0.89467285  0.24811720  1
  O  O20  1  0.57593218  0.89341534  0.75246300  1
  O  O21  1  0.99988048  0.25002777  0.00062235  1
  O  O22  1  0.50017506  0.75002777  0.50062235  1
  O  O23  1  0.49982494  0.74997223  0.00062235  1
  O  O24  1  0.21089850  0.39341534  0.25246300  1
  O  O25  1  0.42406782  0.60658466  0.25246300  1
  O  O26  1  0.42402120  0.60532715  0.74811720  1
  O  O27  1  0.21336790  0.39467285  0.74811720  1
  O  O28  1  0.21079805  0.21213137  0.75246438  1
  O  O29  1  0.78653531  0.78786863  0.75246438  1
  O  O30  1  0.50000000  0.50000000  -0.00000000  1
  O  O31  1  0.50000000  0.50000000  0.50000000  1
  O  O32  1  0.21346469  0.21213137  0.24753562  1
  O  O33  1  0.78920195  0.78786863  0.24753562  1
  O  O34  1  0.57597880  0.39467285  0.25188280  1
  O  O35  1  0.78663210  0.60532715  0.25188280  1
  O  O36  1  0.78910150  0.60658466  0.74753700  1
  O  O37  1  0.57593218  0.39341534  0.74753700  1
  O  O38  1  0.50017506  0.25002777  0.99937765  1
  O  O39  1  0.49982494  0.24997223  0.49937765  1
  O  O40  1  0.99988048  0.75002777  0.49937765  1
  O  O41  1  0.42406782  0.10658466  0.24753700  1
  O  O42  1  0.42402120  0.10532715  0.75188280  1
  O  O43  1  0.78653531  0.28786863  0.74753562  1
  O  O44  1  0.50000000  -0.00000000  -0.00000000  1
  O  O45  1  0.50000000  -0.00000000  0.50000000  1
  O  O46  1  0.78920195  0.28786863  0.25246438  1
  O  O47  1  0.78663210  0.10532715  0.24811720  1
  O  O48  1  0.78910150  0.10658466  0.75246300  1
  O  O49  1  0.00011952  0.24997223  0.50062235  1
