# generated using pymatgen
data_Ho2Sn2O7
_symmetry_space_group_name_H-M   'P 1'
_cell_length_a   7.40488717
_cell_length_b   7.40488718
_cell_length_c   7.40488717
_cell_angle_alpha   59.99999998
_cell_angle_beta   59.99999996
_cell_angle_gamma   59.99999999
_symmetry_Int_Tables_number   1
_chemical_formula_structural   Ho2Sn2O7
_chemical_formula_sum   'Ho4 Sn4 O14'
_cell_volume   287.10472420
_cell_formula_units_Z   2
loop_
 _symmetry_equiv_pos_site_id
 _symmetry_equiv_pos_as_xyz
  1  'x, y, z'
loop_
 _atom_site_type_symbol
 _atom_site_label
 _atom_site_symmetry_multiplicity
 _atom_site_fract_x
 _atom_site_fract_y
 _atom_site_fract_z
 _atom_site_occupancy
  O  O0  1  0.62500000  0.62500000  0.62500000  1
  O  O1  1  0.37500000  0.37500000  0.37500000  1
  O  O2  1  0.33990979  0.91009021  0.91009021  1
  O  O3  1  0.08990979  0.66009021  0.66009021  1
  O  O4  1  0.91009021  0.33990979  0.91009021  1
  O  O5  1  0.91009021  0.91009021  0.33990979  1
  O  O6  1  0.33990979  0.33990979  0.91009021  1
  O  O7  1  0.33990979  0.91009021  0.33990979  1
  O  O8  1  0.91009021  0.33990979  0.33990979  1
  O  O9  1  0.66009021  0.66009021  0.08990979  1
  O  O10  1  0.08990979  0.08990979  0.66009021  1
  O  O11  1  0.66009021  0.08990979  0.08990979  1
  O  O12  1  0.66009021  0.08990979  0.66009021  1
  O  O13  1  0.08990979  0.66009021  0.08990979  1
  Sn  Sn14  1  0.00000000  0.50000000  0.00000000  1
  Sn  Sn15  1  0.50000000  0.00000000  0.00000000  1
  Sn  Sn16  1  0.00000000  0.00000000  0.50000000  1
  Sn  Sn17  1  0.00000000  0.00000000  0.00000000  1
  Ho  Ho18  1  0.50000000  0.00000000  0.50000000  1
  Ho  Ho19  1  0.00000000  0.50000000  0.50000000  1
  Ho  Ho20  1  0.50000000  0.50000000  0.00000000  1
  Ho  Ho21  1  0.50000000  0.50000000  0.50000000  1
