# generated using pymatgen
data_Y3Pb4F17
_symmetry_space_group_name_H-M   'P 1'
_cell_length_a   9.22692113
_cell_length_b   9.27612309
_cell_length_c   9.19949353
_cell_angle_alpha   72.93654925
_cell_angle_beta   73.09776124
_cell_angle_gamma   72.90485247
_symmetry_Int_Tables_number   1
_chemical_formula_structural   Y3Pb4F17
_chemical_formula_sum   'Y6 Pb8 F34'
_cell_volume   701.22090865
_cell_formula_units_Z   2
loop_
 _symmetry_equiv_pos_site_id
 _symmetry_equiv_pos_as_xyz
  1  'x, y, z'
loop_
 _atom_site_type_symbol
 _atom_site_label
 _atom_site_symmetry_multiplicity
 _atom_site_fract_x
 _atom_site_fract_y
 _atom_site_fract_z
 _atom_site_occupancy
  F  F0  1  0.99730431  0.01115662  0.99156933  1
  F  F1  1  0.02187377  0.17694168  0.45372339  1
  F  F2  1  0.13724959  0.13566314  0.13804025  1
  F  F3  1  0.04167078  0.49094193  0.35725936  1
  F  F4  1  0.17524327  0.45365582  0.02343909  1
  F  F5  1  0.07826510  0.79241824  0.25522436  1
  F  F6  1  0.26230664  0.34859758  0.54308784  1
  F  F7  1  0.25700573  0.08594893  0.78906427  1
  F  F8  1  0.35346244  0.04108570  0.49366946  1
  F  F9  1  0.44966976  0.02265000  0.17854030  1
  F  F10  1  0.34329199  0.54688668  0.26093822  1
  F  F11  1  0.21156207  0.58372256  0.69964014  1
  F  F12  1  0.48837597  0.35744215  0.04914624  1
  F  F13  1  0.30149455  0.78872133  0.40883796  1
  F  F14  1  0.54821867  0.24303286  0.34232938  1
  F  F15  1  0.20780409  0.74512110  0.91920819  1
  F  F16  1  0.41984206  0.29909289  0.79264512  1
  F  F17  1  0.59550815  0.71111367  0.19507551  1
  F  F18  1  0.56354452  0.47184475  0.45698384  1
  F  F19  1  0.78593958  0.25921660  0.08241391  1
  F  F20  1  0.45662967  0.73527012  0.65237762  1
  F  F21  1  0.71330130  0.18672586  0.58762535  1
  F  F22  1  0.50826985  0.64418645  0.96222036  1
  F  F23  1  0.83041300  0.40339637  0.27311236  1
  F  F24  1  0.65075000  0.45569859  0.74275715  1
  F  F25  1  0.54491589  0.97739089  0.82483622  1
  F  F26  1  0.64266027  0.95288774  0.51220295  1
  F  F27  1  0.74345803  0.92299379  0.20898002  1
  F  F28  1  0.74853799  0.65998895  0.44659595  1
  F  F29  1  0.91214914  0.21692906  0.74046394  1
  F  F30  1  0.82116338  0.54976276  0.97783917  1
  F  F31  1  0.95180584  0.51067901  0.64531144  1
  F  F32  1  0.86088864  0.86332778  0.86452025  1
  F  F33  1  0.97783883  0.82281756  0.54971292  1
  Pb  Pb34  1  0.03211116  0.30869704  0.89992064  1
  Pb  Pb35  1  0.25942082  0.26241561  0.26575873  1
  Pb  Pb36  1  0.31110691  0.89843808  0.04000029  1
  Pb  Pb37  1  0.09570509  0.96775708  0.69435836  1
  Pb  Pb38  1  0.89690490  0.04091916  0.31177180  1
  Pb  Pb39  1  0.68998108  0.10600491  0.96180071  1
  Pb  Pb40  1  0.73552227  0.73495386  0.74272793  1
  Pb  Pb41  1  0.95571773  0.68503312  0.10495370  1
  Y  Y42  1  0.15959278  0.60864647  0.47039284  1
  Y  Y43  1  0.47165278  0.16761457  0.60641657  1
  Y  Y44  1  0.39104241  0.53096089  0.84111256  1
  Y  Y45  1  0.60597597  0.46826128  0.18720913  1
  Y  Y46  1  0.53109529  0.83414658  0.39177218  1
  Y  Y47  1  0.81675595  0.39684216  0.52341269  1
