# generated using pymatgen
data_LiTa3N4
_symmetry_space_group_name_H-M   'P 1'
_cell_length_a   5.22427783
_cell_length_b   9.04648843
_cell_length_c   10.40461852
_cell_angle_alpha   90.00000000
_cell_angle_beta   90.00000000
_cell_angle_gamma   90.00000000
_symmetry_Int_Tables_number   1
_chemical_formula_structural   LiTa3N4
_chemical_formula_sum   'Li6 Ta18 N24'
_cell_volume   491.73651460
_cell_formula_units_Z   6
loop_
 _symmetry_equiv_pos_site_id
 _symmetry_equiv_pos_as_xyz
  1  'x, y, z'
loop_
 _atom_site_type_symbol
 _atom_site_label
 _atom_site_symmetry_multiplicity
 _atom_site_fract_x
 _atom_site_fract_y
 _atom_site_fract_z
 _atom_site_occupancy
  Li  Li0  1  0.00000000  0.99335235  0.50000000  1
  Li  Li1  1  0.00000000  0.32766589  0.00000000  1
  Li  Li2  1  0.00000000  0.01122910  0.00000000  1
  Li  Li3  1  0.50000000  0.49335235  0.00000000  1
  Li  Li4  1  0.50000000  0.51122910  0.50000000  1
  Li  Li5  1  0.50000000  0.82766589  0.50000000  1
  Ta  Ta6  1  0.15938195  0.16554413  0.75266325  1
  Ta  Ta7  1  0.32987386  0.99815908  0.25234599  1
  Ta  Ta8  1  0.50000000  0.18141471  0.00000000  1
  Ta  Ta9  1  0.50000000  0.15044481  0.50000000  1
  Ta  Ta10  1  0.66609213  0.33642250  0.75084396  1
  Ta  Ta11  1  0.65938195  0.66554413  0.74733675  1
  Ta  Ta12  1  0.67012614  0.99815908  0.74765401  1
  Ta  Ta13  1  0.82987386  0.49815908  0.24765401  1
  Ta  Ta14  1  0.84061805  0.16554413  0.24733675  1
  Ta  Ta15  1  0.00000000  0.33674400  0.50000000  1
  Ta  Ta16  1  0.00000000  0.65044481  0.00000000  1
  Ta  Ta17  1  0.00000000  0.68141471  0.50000000  1
  Ta  Ta18  1  0.16609213  0.83642250  0.74915604  1
  Ta  Ta19  1  0.17012614  0.49815908  0.75234599  1
  Ta  Ta20  1  0.33390787  0.33642250  0.24915604  1
  Ta  Ta21  1  0.34061805  0.66554413  0.25266325  1
  Ta  Ta22  1  0.50000000  0.83674400  0.00000000  1
  Ta  Ta23  1  0.83390787  0.83642250  0.25084396  1
  N  N24  1  0.17732239  0.16752002  0.12279528  1
  N  N25  1  0.33421743  0.33104790  0.87857541  1
  N  N26  1  0.33396665  0.00141558  0.62132196  1
  N  N27  1  0.66479268  0.00198177  0.11970475  1
  N  N28  1  0.66696615  0.33079223  0.38014099  1
  N  N29  1  0.66578257  0.33104790  0.12142459  1
  N  N30  1  0.83223756  0.16669087  0.61921040  1
  N  N31  1  0.82267761  0.16752002  0.87720472  1
  N  N32  1  0.83421743  0.83104790  0.62142459  1
  N  N33  1  0.83303385  0.83079223  0.88014099  1
  N  N34  1  0.83396665  0.50141558  0.87867804  1
  N  N35  1  0.83520732  0.50198177  0.61970475  1
  N  N36  1  0.16479268  0.50198177  0.38029525  1
  N  N37  1  0.16603335  0.50141558  0.12132196  1
  N  N38  1  0.16776244  0.16669087  0.38078960  1
  N  N39  1  0.16696615  0.83079223  0.11985901  1
  N  N40  1  0.16578257  0.83104790  0.37857541  1
  N  N41  1  0.33303385  0.33079223  0.61985901  1
  N  N42  1  0.32267761  0.66752002  0.62279528  1
  N  N43  1  0.33223756  0.66669087  0.88078960  1
  N  N44  1  0.33520732  0.00198177  0.88029525  1
  N  N45  1  0.66603335  0.00141558  0.37867804  1
  N  N46  1  0.67732239  0.66752002  0.37720472  1
  N  N47  1  0.66776244  0.66669087  0.11921040  1
