# generated using pymatgen
data_Ce(Al10Cr)2
_symmetry_space_group_name_H-M   'P 1'
_cell_length_a   10.21395198
_cell_length_b   10.21395198
_cell_length_c   10.21395198
_cell_angle_alpha   60.00000000
_cell_angle_beta   60.00000000
_cell_angle_gamma   60.00000000
_symmetry_Int_Tables_number   1
_chemical_formula_structural   Ce(Al10Cr)2
_chemical_formula_sum   'Ce2 Al40 Cr4'
_cell_volume   753.47081981
_cell_formula_units_Z   2
loop_
 _symmetry_equiv_pos_site_id
 _symmetry_equiv_pos_as_xyz
  1  'x, y, z'
loop_
 _atom_site_type_symbol
 _atom_site_label
 _atom_site_symmetry_multiplicity
 _atom_site_fract_x
 _atom_site_fract_y
 _atom_site_fract_z
 _atom_site_occupancy
  Ce  Ce0  1  0.12500000  0.12500000  0.12500000  1
  Ce  Ce1  1  0.87500000  0.87500000  0.87500000  1
  Al  Al2  1  0.32615650  0.32615650  0.05657225  1
  Al  Al3  1  0.79111476  0.05657225  0.32615650  1
  Al  Al4  1  0.05657225  0.79111476  0.32615650  1
  Al  Al5  1  0.32615650  0.32615650  0.79111476  1
  Al  Al6  1  0.05657225  0.32615650  0.32615650  1
  Al  Al7  1  0.32615650  0.79111476  0.05657225  1
  Al  Al8  1  0.32615650  0.05657225  0.79111476  1
  Al  Al9  1  0.79111476  0.32615650  0.32615650  1
  Al  Al10  1  0.32615650  0.05657225  0.32615650  1
  Al  Al11  1  0.05657225  0.32615650  0.79111476  1
  Al  Al12  1  0.79111476  0.32615650  0.05657225  1
  Al  Al13  1  0.32615650  0.79111476  0.32615650  1
  Al  Al14  1  0.67384350  0.67384350  0.94342775  1
  Al  Al15  1  0.20888524  0.94342775  0.67384350  1
  Al  Al16  1  0.94342775  0.20888524  0.67384350  1
  Al  Al17  1  0.67384350  0.67384350  0.20888524  1
  Al  Al18  1  0.94342775  0.67384350  0.67384350  1
  Al  Al19  1  0.67384350  0.20888524  0.94342775  1
  Al  Al20  1  0.67384350  0.94342775  0.20888524  1
  Al  Al21  1  0.20888524  0.67384350  0.67384350  1
  Al  Al22  1  0.67384350  0.94342775  0.67384350  1
  Al  Al23  1  0.94342775  0.67384350  0.20888524  1
  Al  Al24  1  0.20888524  0.67384350  0.94342775  1
  Al  Al25  1  0.67384350  0.20888524  0.67384350  1
  Al  Al26  1  0.48877878  0.76122122  0.76122122  1
  Al  Al27  1  0.76122122  0.48877878  0.48877878  1
  Al  Al28  1  0.76122122  0.48877878  0.76122122  1
  Al  Al29  1  0.48877878  0.76122122  0.48877878  1
  Al  Al30  1  0.76122122  0.76122122  0.48877878  1
  Al  Al31  1  0.48877878  0.48877878  0.76122122  1
  Al  Al32  1  0.51122122  0.23877878  0.23877878  1
  Al  Al33  1  0.23877878  0.51122122  0.51122122  1
  Al  Al34  1  0.23877878  0.51122122  0.23877878  1
  Al  Al35  1  0.51122122  0.23877878  0.51122122  1
  Al  Al36  1  0.23877878  0.23877878  0.51122122  1
  Al  Al37  1  0.51122122  0.51122122  0.23877878  1
  Al  Al38  1  -0.00000000  0.00000000  0.50000000  1
  Al  Al39  1  -0.00000000  0.50000000  -0.00000000  1
  Al  Al40  1  0.50000000  0.00000000  -0.00000000  1
  Al  Al41  1  -0.00000000  0.00000000  -0.00000000  1
  Cr  Cr42  1  0.50000000  0.50000000  -0.00000000  1
  Cr  Cr43  1  0.50000000  0.00000000  0.50000000  1
  Cr  Cr44  1  -0.00000000  0.50000000  0.50000000  1
  Cr  Cr45  1  0.50000000  0.50000000  0.50000000  1
