# generated using pymatgen
data_NdNbO4
_symmetry_space_group_name_H-M   'P 1'
_cell_length_a   5.27976299
_cell_length_b   5.47535191
_cell_length_c   6.85044437
_cell_angle_alpha   112.43707881
_cell_angle_beta   111.51392973
_cell_angle_gamma   92.67220800
_symmetry_Int_Tables_number   1
_chemical_formula_structural   NdNbO4
_chemical_formula_sum   'Nd2 Nb2 O8'
_cell_volume   166.23452875
_cell_formula_units_Z   2
loop_
 _symmetry_equiv_pos_site_id
 _symmetry_equiv_pos_as_xyz
  1  'x, y, z'
loop_
 _atom_site_type_symbol
 _atom_site_label
 _atom_site_symmetry_multiplicity
 _atom_site_fract_x
 _atom_site_fract_y
 _atom_site_fract_z
 _atom_site_occupancy
  O  O0  1  0.78838197  0.94683765  0.58361899  1
  O  O1  1  0.29523703  0.63678134  0.58361899  1
  O  O2  1  0.21161803  0.05316235  0.41638101  1
  O  O3  1  0.70476297  0.36321866  0.41638101  1
  O  O4  1  0.09975818  0.28163584  0.06903352  1
  O  O5  1  0.46927534  0.78739768  0.06903352  1
  O  O6  1  0.90024182  0.71836416  0.93096648  1
  O  O7  1  0.53072466  0.21260232  0.93096648  1
  Nb  Nb8  1  0.63800344  0.88800344  0.77600689  1
  Nb  Nb9  1  0.36199656  0.11199656  0.22399311  1
  Nd  Nd10  1  0.12272212  0.37272212  0.74544425  1
  Nd  Nd11  1  0.87727788  0.62727788  0.25455575  1
