# generated using pymatgen
data_EuTl2Pd
_symmetry_space_group_name_H-M   'P 1'
_cell_length_a   4.35165780
_cell_length_b   5.96874411
_cell_length_c   8.56056180
_cell_angle_alpha   90.00000000
_cell_angle_beta   90.00000000
_cell_angle_gamma   111.37910023
_symmetry_Int_Tables_number   1
_chemical_formula_structural   EuTl2Pd
_chemical_formula_sum   'Eu2 Tl4 Pd2'
_cell_volume   207.05118986
_cell_formula_units_Z   2
loop_
 _symmetry_equiv_pos_site_id
 _symmetry_equiv_pos_as_xyz
  1  'x, y, z'
loop_
 _atom_site_type_symbol
 _atom_site_label
 _atom_site_symmetry_multiplicity
 _atom_site_fract_x
 _atom_site_fract_y
 _atom_site_fract_z
 _atom_site_occupancy
  Pd  Pd0  1  0.72216576  0.44433153  0.25000000  1
  Pd  Pd1  1  0.27783424  0.55566847  0.75000000  1
  Eu  Eu2  1  0.43430709  0.86861418  0.25000000  1
  Eu  Eu3  1  0.56569291  0.13138582  0.75000000  1
  Tl  Tl4  1  0.85678532  0.71357063  0.54891964  1
  Tl  Tl5  1  0.14321468  0.28642937  0.04891964  1
  Tl  Tl6  1  0.14321468  0.28642937  0.45108036  1
  Tl  Tl7  1  0.85678532  0.71357063  0.95108036  1
