# generated using pymatgen
data_LiNiPO4
_symmetry_space_group_name_H-M   'P 1'
_cell_length_a   8.14134511
_cell_length_b   17.97535147
_cell_length_c   4.94453073
_cell_angle_alpha   89.99907109
_cell_angle_beta   89.99910888
_cell_angle_gamma   89.99975950
_symmetry_Int_Tables_number   1
_chemical_formula_structural   LiNiPO4
_chemical_formula_sum   'Li8 Ni8 P8 O32'
_cell_volume   723.60012954
_cell_formula_units_Z   8
loop_
 _symmetry_equiv_pos_site_id
 _symmetry_equiv_pos_as_xyz
  1  'x, y, z'
loop_
 _atom_site_type_symbol
 _atom_site_label
 _atom_site_symmetry_multiplicity
 _atom_site_fract_x
 _atom_site_fract_y
 _atom_site_fract_z
 _atom_site_occupancy
  Li  Li0  1  0.12727394  0.76074410  0.47200738  1
  Li  Li1  1  0.08563217  0.55624334  0.56750961  1
  Li  Li2  1  0.41437140  0.05624437  0.06751196  1
  Li  Li3  1  0.37272803  0.26074513  0.97200935  1
  Li  Li4  1  0.62727550  0.73925487  0.47201017  1
  Li  Li5  1  0.58563370  0.94375643  0.56750890  1
  Li  Li6  1  0.91436999  0.44375652  0.06751148  1
  Li  Li7  1  0.87272598  0.23925408  0.97201180  1
  Ni  Ni8  1  0.01108817  0.93180014  0.96806489  1
  Ni  Ni9  1  0.15082258  0.34642151  0.47347527  1
  Ni  Ni10  1  0.34916737  0.84642223  0.97345145  1
  Ni  Ni11  1  0.48892086  0.43179825  0.46806246  1
  Ni  Ni12  1  0.51109089  0.56820097  0.96805077  1
  Ni  Ni13  1  0.65081512  0.15357990  0.47348712  1
  Ni  Ni14  1  0.84916342  0.65358326  0.97341864  1
  Ni  Ni15  1  0.98891968  0.06820192  0.46804857  1
  P  P16  1  0.20003499  0.68223058  0.93777031  1
  P  P17  1  0.23456776  0.93116674  0.43681052  1
  P  P18  1  0.26542750  0.43116800  0.93681344  1
  P  P19  1  0.29996092  0.18222990  0.43776386  1
  P  P20  1  0.70003769  0.81777123  0.93776784  1
  P  P21  1  0.73456973  0.56883241  0.43681416  1
  P  P22  1  0.76543050  0.06883159  0.93681203  1
  P  P23  1  0.79996064  0.31776937  0.43776353  1
  O  O24  1  0.05314411  0.64655448  0.77510882  1
  O  O25  1  0.08009509  0.97384397  0.32667936  1
  O  O26  1  0.10721348  0.46813206  0.84116381  1
  O  O27  1  0.14299832  0.13968762  0.36029912  1
  O  O28  1  0.15734006  0.67998006  0.23771476  1
  O  O29  1  0.22293451  0.92846884  0.75353616  1
  O  O30  1  0.21935171  0.76303651  0.82786395  1
  O  O31  1  0.28260020  0.35191308  0.81316289  1
  O  O32  1  0.21740524  0.85191183  0.31317259  1
  O  O33  1  0.28064662  0.26303984  0.32787283  1
  O  O34  1  0.27705597  0.42846879  0.25355474  1
  O  O35  1  0.34267059  0.17997953  0.73771496  1
  O  O36  1  0.35699457  0.63969213  0.86030391  1
  O  O37  1  0.39278421  0.96813127  0.34118215  1
  O  O38  1  0.41990405  0.47384579  0.82668527  1
  O  O39  1  0.44686147  0.14655321  0.27510393  1
  O  O40  1  0.55314262  0.85344601  0.77510678  1
  O  O41  1  0.58009373  0.52615785  0.32668538  1
  O  O42  1  0.60721612  0.03186783  0.84117474  1
  O  O43  1  0.64299707  0.36031213  0.36029651  1
  O  O44  1  0.65733803  0.82001928  0.23771194  1
  O  O45  1  0.72294359  0.57152726  0.75353876  1
  O  O46  1  0.71934977  0.73696545  0.82786832  1
  O  O47  1  0.78259682  0.14808763  0.81316574  1
  O  O48  1  0.71740581  0.64808817  0.31316853  1
  O  O49  1  0.78064776  0.23695959  0.32787838  1
  O  O50  1  0.77705691  0.07152949  0.25354588  1
  O  O51  1  0.84266879  0.32001893  0.73771407  1
  O  O52  1  0.85700008  0.86030647  0.86029136  1
  O  O53  1  0.89278337  0.53186790  0.34117684  1
  O  O54  1  0.91990750  0.02615503  0.82667445  1
  O  O55  1  0.94686331  0.35344510  0.27509956  1
