# generated using pymatgen
data_Sr(NdSe2)2
_symmetry_space_group_name_H-M   'P 1'
_cell_length_a   7.85567235
_cell_length_b   7.85567302
_cell_length_c   7.85567298
_cell_angle_alpha   109.45450096
_cell_angle_beta   109.50466464
_cell_angle_gamma   109.45450272
_symmetry_Int_Tables_number   1
_chemical_formula_structural   Sr(NdSe2)2
_chemical_formula_sum   'Sr2 Nd4 Se8'
_cell_volume   373.18840984
_cell_formula_units_Z   2
loop_
 _symmetry_equiv_pos_site_id
 _symmetry_equiv_pos_as_xyz
  1  'x, y, z'
loop_
 _atom_site_type_symbol
 _atom_site_label
 _atom_site_symmetry_multiplicity
 _atom_site_fract_x
 _atom_site_fract_y
 _atom_site_fract_z
 _atom_site_occupancy
  Nd  Nd0  1  0.25000000  0.62625407  0.37625407  1
  Nd  Nd1  1  0.75000000  0.87374593  0.12374593  1
  Nd  Nd2  1  0.62374593  0.37374593  0.25000000  1
  Nd  Nd3  1  0.87625407  0.12625407  0.75000000  1
  Se  Se4  1  0.14301363  0.15302528  0.14405275  1
  Se  Se5  1  0.35698637  0.50103913  0.01001165  1
  Se  Se6  1  0.64405275  0.65302528  0.64301363  1
  Se  Se7  1  0.51001165  0.00103913  0.85698637  1
  Se  Se8  1  0.50897252  0.99896087  0.35594725  1
  Se  Se9  1  0.98998835  0.84697472  0.49102748  1
  Se  Se10  1  0.85594725  0.49896087  0.00897252  1
  Se  Se11  1  0.99102748  0.34697472  0.48998835  1
  Sr  Sr12  1  0.12500000  0.75000000  0.87500000  1
  Sr  Sr13  1  0.37500000  0.25000000  0.62500000  1
