# generated using pymatgen
data_Li6HAu
_symmetry_space_group_name_H-M   'P 1'
_cell_length_a   3.09529996
_cell_length_b   5.00629997
_cell_length_c   6.30159998
_cell_angle_alpha   90.00000000
_cell_angle_beta   90.00000000
_cell_angle_gamma   90.00000000
_symmetry_Int_Tables_number   1
_chemical_formula_structural   Li6HAu
_chemical_formula_sum   'Li12 H2 Au2'
_cell_volume   97.64959391
_cell_formula_units_Z   2
loop_
 _symmetry_equiv_pos_site_id
 _symmetry_equiv_pos_as_xyz
  1  'x, y, z'
loop_
 _atom_site_type_symbol
 _atom_site_label
 _atom_site_symmetry_multiplicity
 _atom_site_fract_x
 _atom_site_fract_y
 _atom_site_fract_z
 _atom_site_occupancy
  Au  Au0  1  0.00000000  0.00000000  0.00000000  1
  Au  Au1  1  0.50000000  0.50000000  0.50000000  1
  Li  Li2  1  0.50000000  0.73076997  0.14867000  1
  Li  Li3  1  0.50000000  0.26923000  0.85132996  1
  Li  Li4  1  0.50000000  0.26923000  0.14867000  1
  Li  Li5  1  0.50000000  0.73076997  0.85132996  1
  Li  Li6  1  0.00000000  0.23077000  0.64867000  1
  Li  Li7  1  0.00000000  0.76923003  0.35133000  1
  Li  Li8  1  0.00000000  0.76923003  0.64867000  1
  Li  Li9  1  0.00000000  0.23077000  0.35133000  1
  Li  Li10  1  0.50000000  0.00000000  0.35833999  1
  Li  Li11  1  0.50000000  0.00000000  0.64166001  1
  Li  Li12  1  0.00000000  0.50000000  0.85834003  1
  Li  Li13  1  0.00000000  0.50000000  0.14166001  1
  H  H14  1  0.00000000  0.00000000  0.50000000  1
  H  H15  1  0.50000000  0.50000000  0.00000000  1
