# generated using pymatgen
data_LiHAu2
_symmetry_space_group_name_H-M   'P 1'
_cell_length_a   2.75060010
_cell_length_b   2.75060010
_cell_length_c   11.43760014
_cell_angle_alpha   90.00000000
_cell_angle_beta   90.00000000
_cell_angle_gamma   90.00000000
_symmetry_Int_Tables_number   1
_chemical_formula_structural   LiHAu2
_chemical_formula_sum   'Li2 H2 Au4'
_cell_volume   86.53460549
_cell_formula_units_Z   2
loop_
 _symmetry_equiv_pos_site_id
 _symmetry_equiv_pos_as_xyz
  1  'x, y, z'
loop_
 _atom_site_type_symbol
 _atom_site_label
 _atom_site_symmetry_multiplicity
 _atom_site_fract_x
 _atom_site_fract_y
 _atom_site_fract_z
 _atom_site_occupancy
  Au  Au0  1  0.00000000  0.00000000  0.00000000  1
  Au  Au1  1  0.50000000  0.50000000  0.50000000  1
  Au  Au2  1  0.50000000  0.50000000  0.18321001  1
  Au  Au3  1  0.50000000  0.50000000  0.81678999  1
  Li  Li4  1  0.00000000  0.00000000  0.33976000  1
  Li  Li5  1  0.00000000  0.00000000  0.66023998  1
  H  H6  1  0.50000000  0.50000000  0.34406999  1
  H  H7  1  0.50000000  0.50000000  0.65593004  1
