# generated using pymatgen
data_Ba2YCu3O7
_symmetry_space_group_name_H-M   'P 1'
_cell_length_a   3.81412000
_cell_length_b   3.87694000
_cell_length_c   11.63970000
_cell_angle_alpha   90.00000000
_cell_angle_beta   90.00000000
_cell_angle_gamma   90.00000000
_symmetry_Int_Tables_number   1
_chemical_formula_structural   Ba2YCu3O7
_chemical_formula_sum   'Ba2 Y1 Cu3 O7'
_cell_volume   172.11757540
_cell_formula_units_Z   1
loop_
 _symmetry_equiv_pos_site_id
 _symmetry_equiv_pos_as_xyz
  1  'x, y, z'
loop_
 _atom_type_symbol
 _atom_type_oxidation_number
  Ba2+  2.0
  Y3+  3.0
  Cu2.33+  2.33
  O2-  -2.0
loop_
 _atom_site_type_symbol
 _atom_site_label
 _atom_site_symmetry_multiplicity
 _atom_site_fract_x
 _atom_site_fract_y
 _atom_site_fract_z
 _atom_site_occupancy
  Ba2+  Ba0  1  0.50000000  0.50000000  0.18377000  1.0
  Ba2+  Ba1  1  0.50000000  0.50000000  0.81623000  1.0
  Y3+  Y2  1  0.50000000  0.50000000  0.50000000  1.0
  Cu2.33+  Cu3  1  0.00000000  0.00000000  0.00000000  1.0
  Cu2.33+  Cu4  1  0.00000000  0.00000000  0.35535000  1.0
  Cu2.33+  Cu5  1  0.00000000  0.00000000  0.64465000  1.0
  O2-  O6  1  0.00000000  0.50000000  0.00000000  1.0
  O2-  O7  1  0.50000000  0.00000000  0.37837000  1.0
  O2-  O8  1  0.50000000  0.00000000  0.62163000  1.0
  O2-  O9  1  0.00000000  0.50000000  0.37727000  1.0
  O2-  O10  1  0.00000000  0.50000000  0.62273000  1.0
  O2-  O11  1  0.00000000  0.00000000  0.15879000  1.0
  O2-  O12  1  0.00000000  0.00000000  0.84121000  1.0
