# generated using pymatgen
data_Ba4Si23
_symmetry_space_group_name_H-M   'P 1'
_cell_length_a   10.30573000
_cell_length_b   10.30573000
_cell_length_c   10.30573000
_cell_angle_alpha   90.00000000
_cell_angle_beta   90.00000000
_cell_angle_gamma   90.00000000
_symmetry_Int_Tables_number   1
_chemical_formula_structural   Ba4Si23
_chemical_formula_sum   'Ba8 Si46'
_cell_volume   1094.55170182
_cell_formula_units_Z   2
loop_
 _symmetry_equiv_pos_site_id
 _symmetry_equiv_pos_as_xyz
  1  'x, y, z'
loop_
 _atom_type_symbol
 _atom_type_oxidation_number
  Ba0+  0.0
  Si0+  0.0
loop_
 _atom_site_type_symbol
 _atom_site_label
 _atom_site_symmetry_multiplicity
 _atom_site_fract_x
 _atom_site_fract_y
 _atom_site_fract_z
 _atom_site_occupancy
  Ba0+  Ba0  1  0.50000000  0.50000000  0.50000000  1.0
  Ba0+  Ba1  1  0.00000000  0.00000000  0.00000000  1.0
  Ba0+  Ba2  1  0.50000000  0.00000000  0.75000000  1.0
  Ba0+  Ba3  1  0.00000000  0.25000000  0.50000000  1.0
  Ba0+  Ba4  1  0.75000000  0.50000000  0.00000000  1.0
  Ba0+  Ba5  1  0.50000000  0.00000000  0.25000000  1.0
  Ba0+  Ba6  1  0.00000000  0.75000000  0.50000000  1.0
  Ba0+  Ba7  1  0.25000000  0.50000000  0.00000000  1.0
  Si0+  Si8  1  0.00000000  0.50000000  0.75000000  1.0
  Si0+  Si9  1  0.50000000  0.25000000  0.00000000  1.0
  Si0+  Si10  1  0.75000000  0.00000000  0.50000000  1.0
  Si0+  Si11  1  0.00000000  0.50000000  0.25000000  1.0
  Si0+  Si12  1  0.50000000  0.75000000  0.00000000  1.0
  Si0+  Si13  1  0.25000000  0.00000000  0.50000000  1.0
  Si0+  Si14  1  0.68510000  0.31490000  0.68510000  1.0
  Si0+  Si15  1  0.31490000  0.68510000  0.31490000  1.0
  Si0+  Si16  1  0.68510000  0.68510000  0.31490000  1.0
  Si0+  Si17  1  0.31490000  0.31490000  0.68510000  1.0
  Si0+  Si18  1  0.31490000  0.68510000  0.68510000  1.0
  Si0+  Si19  1  0.68510000  0.31490000  0.31490000  1.0
  Si0+  Si20  1  0.31490000  0.31490000  0.31490000  1.0
  Si0+  Si21  1  0.68510000  0.68510000  0.68510000  1.0
  Si0+  Si22  1  0.18510000  0.18510000  0.81490000  1.0
  Si0+  Si23  1  0.81490000  0.81490000  0.18510000  1.0
  Si0+  Si24  1  0.18510000  0.81490000  0.18510000  1.0
  Si0+  Si25  1  0.81490000  0.18510000  0.81490000  1.0
  Si0+  Si26  1  0.81490000  0.18510000  0.18510000  1.0
  Si0+  Si27  1  0.18510000  0.81490000  0.81490000  1.0
  Si0+  Si28  1  0.81490000  0.81490000  0.81490000  1.0
  Si0+  Si29  1  0.18510000  0.18510000  0.18510000  1.0
  Si0+  Si30  1  0.62100000  0.19480000  0.50000000  1.0
  Si0+  Si31  1  0.80520000  0.50000000  0.62100000  1.0
  Si0+  Si32  1  0.50000000  0.37900000  0.80520000  1.0
  Si0+  Si33  1  0.37900000  0.80520000  0.50000000  1.0
  Si0+  Si34  1  0.19480000  0.50000000  0.37900000  1.0
  Si0+  Si35  1  0.50000000  0.62100000  0.19480000  1.0
  Si0+  Si36  1  0.62100000  0.80520000  0.50000000  1.0
  Si0+  Si37  1  0.80520000  0.50000000  0.37900000  1.0
  Si0+  Si38  1  0.37900000  0.19480000  0.50000000  1.0
  Si0+  Si39  1  0.19480000  0.50000000  0.62100000  1.0
  Si0+  Si40  1  0.50000000  0.62100000  0.80520000  1.0
  Si0+  Si41  1  0.50000000  0.37900000  0.19480000  1.0
  Si0+  Si42  1  0.12100000  0.00000000  0.69480000  1.0
  Si0+  Si43  1  0.30520000  0.12100000  0.00000000  1.0
  Si0+  Si44  1  0.00000000  0.30520000  0.87900000  1.0
  Si0+  Si45  1  0.87900000  0.00000000  0.30520000  1.0
  Si0+  Si46  1  0.69480000  0.87900000  0.00000000  1.0
  Si0+  Si47  1  0.00000000  0.69480000  0.12100000  1.0
  Si0+  Si48  1  0.12100000  0.00000000  0.30520000  1.0
  Si0+  Si49  1  0.30520000  0.87900000  0.00000000  1.0
  Si0+  Si50  1  0.87900000  0.00000000  0.69480000  1.0
  Si0+  Si51  1  0.69480000  0.12100000  0.00000000  1.0
  Si0+  Si52  1  0.00000000  0.30520000  0.12100000  1.0
  Si0+  Si53  1  0.00000000  0.69480000  0.87900000  1.0
