# generated using pymatgen
data_ZrPOs
_symmetry_space_group_name_H-M   'P 1'
_cell_length_a   6.43200000
_cell_length_b   3.89500000
_cell_length_c   7.32700000
_cell_angle_alpha   90.00000000
_cell_angle_beta   90.00000000
_cell_angle_gamma   90.00000000
_symmetry_Int_Tables_number   1
_chemical_formula_structural   ZrPOs
_chemical_formula_sum   'Zr4 P4 Os4'
_cell_volume   183.56069328
_cell_formula_units_Z   4
loop_
 _symmetry_equiv_pos_site_id
 _symmetry_equiv_pos_as_xyz
  1  'x, y, z'
loop_
 _atom_type_symbol
 _atom_type_oxidation_number
  Zr0+  0.0
  P0+  0.0
  Os0+  0.0
loop_
 _atom_site_type_symbol
 _atom_site_label
 _atom_site_symmetry_multiplicity
 _atom_site_fract_x
 _atom_site_fract_y
 _atom_site_fract_z
 _atom_site_occupancy
  Zr0+  Zr0  1  0.52200000  0.25000000  0.32000000  1.0
  Zr0+  Zr1  1  0.02200000  0.25000000  0.18000000  1.0
  Zr0+  Zr2  1  0.47800000  0.75000000  0.68000000  1.0
  Zr0+  Zr3  1  0.97800000  0.75000000  0.82000000  1.0
  P0+  P4  1  0.27400000  0.25000000  0.87800000  1.0
  P0+  P5  1  0.77400000  0.25000000  0.62200000  1.0
  P0+  P6  1  0.72600000  0.75000000  0.12200000  1.0
  P0+  P7  1  0.22600000  0.75000000  0.37800000  1.0
  Os0+  Os8  1  0.65100000  0.25000000  0.93900000  1.0
  Os0+  Os9  1  0.15100000  0.25000000  0.56100000  1.0
  Os0+  Os10  1  0.34900000  0.75000000  0.06100000  1.0
  Os0+  Os11  1  0.84900000  0.75000000  0.43900000  1.0
