# generated using pymatgen
data_Sr2Cu(BiO3)2
_symmetry_space_group_name_H-M   'P 1'
_cell_length_a   5.36200000
_cell_length_b   5.37400000
_cell_length_c   24.62200000
_cell_angle_alpha   90.00000000
_cell_angle_beta   90.00000000
_cell_angle_gamma   90.00000000
_symmetry_Int_Tables_number   1
_chemical_formula_structural   Sr2Cu(BiO3)2
_chemical_formula_sum   'Sr8 Cu4 Bi8 O24'
_cell_volume   709.49248334
_cell_formula_units_Z   4
loop_
 _symmetry_equiv_pos_site_id
 _symmetry_equiv_pos_as_xyz
  1  'x, y, z'
loop_
 _atom_type_symbol
 _atom_type_oxidation_number
  Sr2+  2.0
  Cu2+  2.0
  Bi3+  3.0
  O2-  -2.0
loop_
 _atom_site_type_symbol
 _atom_site_label
 _atom_site_symmetry_multiplicity
 _atom_site_fract_x
 _atom_site_fract_y
 _atom_site_fract_z
 _atom_site_occupancy
  Sr2+  Sr0  1  0.00000000  0.24790000  0.82100000  1.0
  Sr2+  Sr1  1  0.00000000  0.75210000  0.17900000  1.0
  Sr2+  Sr2  1  0.50000000  0.24790000  0.17900000  1.0
  Sr2+  Sr3  1  0.50000000  0.75210000  0.82100000  1.0
  Sr2+  Sr4  1  0.00000000  0.74790000  0.32100000  1.0
  Sr2+  Sr5  1  0.00000000  0.25210000  0.67900000  1.0
  Sr2+  Sr6  1  0.50000000  0.74790000  0.67900000  1.0
  Sr2+  Sr7  1  0.50000000  0.25210000  0.32100000  1.0
  Cu2+  Cu8  1  0.00000000  0.75000000  0.75000000  1.0
  Cu2+  Cu9  1  0.00000000  0.25000000  0.25000000  1.0
  Cu2+  Cu10  1  0.50000000  0.75000000  0.25000000  1.0
  Cu2+  Cu11  1  0.50000000  0.25000000  0.75000000  1.0
  Bi3+  Bi12  1  0.50000000  0.27580000  0.93400000  1.0
  Bi3+  Bi13  1  0.50000000  0.72420000  0.06600000  1.0
  Bi3+  Bi14  1  0.00000000  0.27580000  0.06600000  1.0
  Bi3+  Bi15  1  0.00000000  0.72420000  0.93400000  1.0
  Bi3+  Bi16  1  0.50000000  0.77580000  0.43400000  1.0
  Bi3+  Bi17  1  0.50000000  0.22420000  0.56600000  1.0
  Bi3+  Bi18  1  0.00000000  0.77580000  0.56600000  1.0
  Bi3+  Bi19  1  0.00000000  0.22420000  0.43400000  1.0
  O2-  O20  1  0.25000000  0.50000000  0.75400000  1.0
  O2-  O21  1  0.25000000  0.50000000  0.24600000  1.0
  O2-  O22  1  0.75000000  0.50000000  0.24600000  1.0
  O2-  O23  1  0.75000000  0.50000000  0.75400000  1.0
  O2-  O24  1  0.25000000  0.00000000  0.25400000  1.0
  O2-  O25  1  0.25000000  0.00000000  0.74600000  1.0
  O2-  O26  1  0.75000000  0.00000000  0.74600000  1.0
  O2-  O27  1  0.75000000  0.00000000  0.25400000  1.0
  O2-  O28  1  0.50000000  0.22600000  0.85500000  1.0
  O2-  O29  1  0.50000000  0.77400000  0.14500000  1.0
  O2-  O30  1  0.00000000  0.22600000  0.14500000  1.0
  O2-  O31  1  0.00000000  0.77400000  0.85500000  1.0
  O2-  O32  1  0.50000000  0.72600000  0.35500000  1.0
  O2-  O33  1  0.50000000  0.27400000  0.64500000  1.0
  O2-  O34  1  0.00000000  0.72600000  0.64500000  1.0
  O2-  O35  1  0.00000000  0.27400000  0.35500000  1.0
  O2-  O36  1  0.00000000  0.33400000  0.93600000  1.0
  O2-  O37  1  0.00000000  0.66600000  0.06400000  1.0
  O2-  O38  1  0.50000000  0.33400000  0.06400000  1.0
  O2-  O39  1  0.50000000  0.66600000  0.93600000  1.0
  O2-  O40  1  0.00000000  0.83400000  0.43600000  1.0
  O2-  O41  1  0.00000000  0.16600000  0.56400000  1.0
  O2-  O42  1  0.50000000  0.83400000  0.56400000  1.0
  O2-  O43  1  0.50000000  0.16600000  0.43600000  1.0
