data_3D\Atomistic
_audit_creation_date              2022-06-26
_audit_creation_method            'Materials Studio'
_symmetry_space_group_name_H-M    'P4/MMM'
_symmetry_Int_Tables_number       123
_symmetry_cell_setting            tetragonal
loop_
_symmetry_equiv_pos_as_xyz
  x,y,z
  -x,-y,z
  -y,x,z
  y,-x,z
  -x,y,-z
  x,-y,-z
  y,x,-z
  -y,-x,-z
  -x,-y,-z
  x,y,-z
  y,-x,-z
  -y,x,-z
  x,-y,z
  -x,y,z
  -y,-x,z
  y,x,z
_cell_length_a                    4.2320
_cell_length_b                    4.2320
_cell_length_c                    6.7860
_cell_angle_alpha                 90.0000
_cell_angle_beta                  90.0000
_cell_angle_gamma                 90.0000
loop_
_atom_site_label
_atom_site_type_symbol
_atom_site_fract_x
_atom_site_fract_y
_atom_site_fract_z
_atom_site_U_iso_or_equiv
_atom_site_adp_type
_atom_site_occupancy
Pu1    Pu    0.00000   0.00000   0.00000   0.00000  Uiso   1.00
Co2    Co    0.00000   0.00000   0.50000   0.00000  Uiso   1.00
Ga3    Ga    0.50000   0.50000   0.00000   0.00000  Uiso   1.00
Ga4    Ga    0.00000   0.50000   0.31200   0.00000  Uiso   1.00
loop_
_geom_bond_atom_site_label_1
_geom_bond_atom_site_label_2
_geom_bond_distance
_geom_bond_site_symmetry_2
_ccdc_geom_bond_type
Co2    Ga4     2.471   1_545 S
Co2    Ga4     2.471   3_655 S
Co2    Ga4     2.471   3     S
Co2    Ga4     2.471   5_546 S
Co2    Ga4     2.471   5_556 S
Co2    Ga4     2.471   7_456 S
Co2    Ga4     2.471   7_556 S
Ga4    Co2     2.471   1_565 S
Ga4    Ga4     2.552   5_556 S
