# generated using pymatgen
data_ZrW2
_symmetry_space_group_name_H-M   'P 1'
_cell_length_a   7.61300000
_cell_length_b   7.61300000
_cell_length_c   7.61300000
_cell_angle_alpha   90.00000000
_cell_angle_beta   90.00000000
_cell_angle_gamma   90.00000000
_symmetry_Int_Tables_number   1
_chemical_formula_structural   ZrW2
_chemical_formula_sum   'Zr8 W16'
_cell_volume   441.23249540
_cell_formula_units_Z   8
loop_
 _symmetry_equiv_pos_site_id
 _symmetry_equiv_pos_as_xyz
  1  'x, y, z'
loop_
 _atom_type_symbol
 _atom_type_oxidation_number
  Zr0+  0.0
  W0+  0.0
loop_
 _atom_site_type_symbol
 _atom_site_label
 _atom_site_symmetry_multiplicity
 _atom_site_fract_x
 _atom_site_fract_y
 _atom_site_fract_z
 _atom_site_occupancy
  Zr0+  Zr0  1  0.25000000  0.25000000  0.25000000  1.0
  Zr0+  Zr1  1  0.00000000  0.00000000  0.00000000  1.0
  Zr0+  Zr2  1  0.25000000  0.75000000  0.75000000  1.0
  Zr0+  Zr3  1  0.00000000  0.50000000  0.50000000  1.0
  Zr0+  Zr4  1  0.75000000  0.25000000  0.75000000  1.0
  Zr0+  Zr5  1  0.50000000  0.00000000  0.50000000  1.0
  Zr0+  Zr6  1  0.75000000  0.75000000  0.25000000  1.0
  Zr0+  Zr7  1  0.50000000  0.50000000  0.00000000  1.0
  W0+  W8  1  0.87500000  0.87500000  0.62500000  1.0
  W0+  W9  1  0.87500000  0.62500000  0.87500000  1.0
  W0+  W10  1  0.62500000  0.87500000  0.87500000  1.0
  W0+  W11  1  0.62500000  0.62500000  0.62500000  1.0
  W0+  W12  1  0.37500000  0.37500000  0.62500000  1.0
  W0+  W13  1  0.37500000  0.62500000  0.37500000  1.0
  W0+  W14  1  0.62500000  0.37500000  0.37500000  1.0
  W0+  W15  1  0.87500000  0.37500000  0.12500000  1.0
  W0+  W16  1  0.87500000  0.12500000  0.37500000  1.0
  W0+  W17  1  0.62500000  0.12500000  0.12500000  1.0
  W0+  W18  1  0.37500000  0.87500000  0.12500000  1.0
  W0+  W19  1  0.37500000  0.12500000  0.87500000  1.0
  W0+  W20  1  0.12500000  0.87500000  0.37500000  1.0
  W0+  W21  1  0.12500000  0.62500000  0.12500000  1.0
  W0+  W22  1  0.12500000  0.37500000  0.87500000  1.0
  W0+  W23  1  0.12500000  0.12500000  0.62500000  1.0
