# generated using pymatgen
data_ZrZn2
_symmetry_space_group_name_H-M   'P 1'
_cell_length_a   7.39500000
_cell_length_b   7.39500000
_cell_length_c   7.39500000
_cell_angle_alpha   90.00000000
_cell_angle_beta   90.00000000
_cell_angle_gamma   90.00000000
_symmetry_Int_Tables_number   1
_chemical_formula_structural   ZrZn2
_chemical_formula_sum   'Zr8 Zn16'
_cell_volume   404.40315487
_cell_formula_units_Z   8
loop_
 _symmetry_equiv_pos_site_id
 _symmetry_equiv_pos_as_xyz
  1  'x, y, z'
loop_
 _atom_type_symbol
 _atom_type_oxidation_number
  Zr0+  0.0
  Zn0+  0.0
loop_
 _atom_site_type_symbol
 _atom_site_label
 _atom_site_symmetry_multiplicity
 _atom_site_fract_x
 _atom_site_fract_y
 _atom_site_fract_z
 _atom_site_occupancy
  Zr0+  Zr0  1  0.25000000  0.25000000  0.25000000  1.0
  Zr0+  Zr1  1  0.00000000  0.00000000  0.00000000  1.0
  Zr0+  Zr2  1  0.25000000  0.75000000  0.75000000  1.0
  Zr0+  Zr3  1  0.00000000  0.50000000  0.50000000  1.0
  Zr0+  Zr4  1  0.75000000  0.25000000  0.75000000  1.0
  Zr0+  Zr5  1  0.50000000  0.00000000  0.50000000  1.0
  Zr0+  Zr6  1  0.75000000  0.75000000  0.25000000  1.0
  Zr0+  Zr7  1  0.50000000  0.50000000  0.00000000  1.0
  Zn0+  Zn8  1  0.87500000  0.87500000  0.62500000  1.0
  Zn0+  Zn9  1  0.87500000  0.62500000  0.87500000  1.0
  Zn0+  Zn10  1  0.62500000  0.87500000  0.87500000  1.0
  Zn0+  Zn11  1  0.62500000  0.62500000  0.62500000  1.0
  Zn0+  Zn12  1  0.37500000  0.37500000  0.62500000  1.0
  Zn0+  Zn13  1  0.37500000  0.62500000  0.37500000  1.0
  Zn0+  Zn14  1  0.62500000  0.37500000  0.37500000  1.0
  Zn0+  Zn15  1  0.87500000  0.37500000  0.12500000  1.0
  Zn0+  Zn16  1  0.87500000  0.12500000  0.37500000  1.0
  Zn0+  Zn17  1  0.62500000  0.12500000  0.12500000  1.0
  Zn0+  Zn18  1  0.37500000  0.87500000  0.12500000  1.0
  Zn0+  Zn19  1  0.37500000  0.12500000  0.87500000  1.0
  Zn0+  Zn20  1  0.12500000  0.87500000  0.37500000  1.0
  Zn0+  Zn21  1  0.12500000  0.62500000  0.12500000  1.0
  Zn0+  Zn22  1  0.12500000  0.37500000  0.87500000  1.0
  Zn0+  Zn23  1  0.12500000  0.12500000  0.62500000  1.0
