# generated using pymatgen
data_In2Bi
_symmetry_space_group_name_H-M   'P 1'
_cell_length_a   5.45500000
_cell_length_b   5.45500000
_cell_length_c   6.50200000
_cell_angle_alpha   90.00000000
_cell_angle_beta   90.00000000
_cell_angle_gamma   120.00000000
_symmetry_Int_Tables_number   1
_chemical_formula_structural   In2Bi
_chemical_formula_sum   'In4 Bi2'
_cell_volume   167.55874802
_cell_formula_units_Z   2
loop_
 _symmetry_equiv_pos_site_id
 _symmetry_equiv_pos_as_xyz
  1  'x, y, z'
loop_
 _atom_type_symbol
 _atom_type_oxidation_number
  In0+  0.0
  Bi0+  0.0
loop_
 _atom_site_type_symbol
 _atom_site_label
 _atom_site_symmetry_multiplicity
 _atom_site_fract_x
 _atom_site_fract_y
 _atom_site_fract_z
 _atom_site_occupancy
  In0+  In0  1  0.33333333  0.66666667  0.25000000  1.0
  In0+  In1  1  0.66666667  0.33333333  0.75000000  1.0
  In0+  In2  1  0.33333333  0.66666667  0.75000000  1.0
  In0+  In3  1  0.66666667  0.33333333  0.25000000  1.0
  Bi0+  Bi4  1  0.00000000  0.00000000  0.50000000  1.0
  Bi0+  Bi5  1  0.00000000  0.00000000  0.00000000  1.0
