# generated using pymatgen
data_CaIr2
_symmetry_space_group_name_H-M   'P 1'
_cell_length_a   7.54500000
_cell_length_b   7.54500000
_cell_length_c   7.54500000
_cell_angle_alpha   90.00000000
_cell_angle_beta   90.00000000
_cell_angle_gamma   90.00000000
_symmetry_Int_Tables_number   1
_chemical_formula_structural   CaIr2
_chemical_formula_sum   'Ca8 Ir16'
_cell_volume   429.51440362
_cell_formula_units_Z   8
loop_
 _symmetry_equiv_pos_site_id
 _symmetry_equiv_pos_as_xyz
  1  'x, y, z'
loop_
 _atom_type_symbol
 _atom_type_oxidation_number
  Ca0+  0.0
  Ir0+  0.0
loop_
 _atom_site_type_symbol
 _atom_site_label
 _atom_site_symmetry_multiplicity
 _atom_site_fract_x
 _atom_site_fract_y
 _atom_site_fract_z
 _atom_site_occupancy
  Ca0+  Ca0  1  0.62500000  0.12500000  0.12500000  1.0
  Ca0+  Ca1  1  0.12500000  0.62500000  0.12500000  1.0
  Ca0+  Ca2  1  0.12500000  0.12500000  0.62500000  1.0
  Ca0+  Ca3  1  0.62500000  0.62500000  0.62500000  1.0
  Ca0+  Ca4  1  0.37500000  0.87500000  0.87500000  1.0
  Ca0+  Ca5  1  0.87500000  0.37500000  0.87500000  1.0
  Ca0+  Ca6  1  0.87500000  0.87500000  0.37500000  1.0
  Ca0+  Ca7  1  0.37500000  0.37500000  0.37500000  1.0
  Ir0+  Ir8  1  0.00000000  0.75000000  0.75000000  1.0
  Ir0+  Ir9  1  0.75000000  0.00000000  0.75000000  1.0
  Ir0+  Ir10  1  0.75000000  0.75000000  0.00000000  1.0
  Ir0+  Ir11  1  0.00000000  0.00000000  0.00000000  1.0
  Ir0+  Ir12  1  0.00000000  0.25000000  0.25000000  1.0
  Ir0+  Ir13  1  0.25000000  0.00000000  0.25000000  1.0
  Ir0+  Ir14  1  0.25000000  0.25000000  0.00000000  1.0
  Ir0+  Ir15  1  0.75000000  0.50000000  0.25000000  1.0
  Ir0+  Ir16  1  0.75000000  0.25000000  0.50000000  1.0
  Ir0+  Ir17  1  0.00000000  0.50000000  0.50000000  1.0
  Ir0+  Ir18  1  0.25000000  0.50000000  0.75000000  1.0
  Ir0+  Ir19  1  0.25000000  0.75000000  0.50000000  1.0
  Ir0+  Ir20  1  0.50000000  0.75000000  0.25000000  1.0
  Ir0+  Ir21  1  0.50000000  0.00000000  0.50000000  1.0
  Ir0+  Ir22  1  0.50000000  0.25000000  0.75000000  1.0
  Ir0+  Ir23  1  0.50000000  0.50000000  0.00000000  1.0
