# generated using pymatgen
data_BaRh2
_symmetry_space_group_name_H-M   'P 1'
_cell_length_a   7.85200000
_cell_length_b   7.85200000
_cell_length_c   7.85200000
_cell_angle_alpha   90.00000000
_cell_angle_beta   90.00000000
_cell_angle_gamma   90.00000000
_symmetry_Int_Tables_number   1
_chemical_formula_structural   BaRh2
_chemical_formula_sum   'Ba8 Rh16'
_cell_volume   484.10645421
_cell_formula_units_Z   8
loop_
 _symmetry_equiv_pos_site_id
 _symmetry_equiv_pos_as_xyz
  1  'x, y, z'
loop_
 _atom_type_symbol
 _atom_type_oxidation_number
  Ba0+  0.0
  Rh0+  0.0
loop_
 _atom_site_type_symbol
 _atom_site_label
 _atom_site_symmetry_multiplicity
 _atom_site_fract_x
 _atom_site_fract_y
 _atom_site_fract_z
 _atom_site_occupancy
  Ba0+  Ba0  1  0.62500000  0.12500000  0.12500000  1.0
  Ba0+  Ba1  1  0.12500000  0.62500000  0.12500000  1.0
  Ba0+  Ba2  1  0.12500000  0.12500000  0.62500000  1.0
  Ba0+  Ba3  1  0.62500000  0.62500000  0.62500000  1.0
  Ba0+  Ba4  1  0.37500000  0.87500000  0.87500000  1.0
  Ba0+  Ba5  1  0.87500000  0.37500000  0.87500000  1.0
  Ba0+  Ba6  1  0.87500000  0.87500000  0.37500000  1.0
  Ba0+  Ba7  1  0.37500000  0.37500000  0.37500000  1.0
  Rh0+  Rh8  1  0.00000000  0.75000000  0.75000000  1.0
  Rh0+  Rh9  1  0.75000000  0.00000000  0.75000000  1.0
  Rh0+  Rh10  1  0.75000000  0.75000000  0.00000000  1.0
  Rh0+  Rh11  1  0.00000000  0.00000000  0.00000000  1.0
  Rh0+  Rh12  1  0.00000000  0.25000000  0.25000000  1.0
  Rh0+  Rh13  1  0.25000000  0.00000000  0.25000000  1.0
  Rh0+  Rh14  1  0.25000000  0.25000000  0.00000000  1.0
  Rh0+  Rh15  1  0.75000000  0.50000000  0.25000000  1.0
  Rh0+  Rh16  1  0.75000000  0.25000000  0.50000000  1.0
  Rh0+  Rh17  1  0.00000000  0.50000000  0.50000000  1.0
  Rh0+  Rh18  1  0.25000000  0.50000000  0.75000000  1.0
  Rh0+  Rh19  1  0.25000000  0.75000000  0.50000000  1.0
  Rh0+  Rh20  1  0.50000000  0.75000000  0.25000000  1.0
  Rh0+  Rh21  1  0.50000000  0.00000000  0.50000000  1.0
  Rh0+  Rh22  1  0.50000000  0.25000000  0.75000000  1.0
  Rh0+  Rh23  1  0.50000000  0.50000000  0.00000000  1.0
