# generated using pymatgen
data_In5Bi3
_symmetry_space_group_name_H-M   'P 1'
_cell_length_a   8.48400000
_cell_length_b   8.48400000
_cell_length_c   12.59000000
_cell_angle_alpha   90.00000000
_cell_angle_beta   90.00000000
_cell_angle_gamma   90.00000000
_symmetry_Int_Tables_number   1
_chemical_formula_structural   In5Bi3
_chemical_formula_sum   'In20 Bi12'
_cell_volume   906.20624304
_cell_formula_units_Z   4
loop_
 _symmetry_equiv_pos_site_id
 _symmetry_equiv_pos_as_xyz
  1  'x, y, z'
loop_
 _atom_type_symbol
 _atom_type_oxidation_number
  In0+  0.0
  Bi0+  0.0
loop_
 _atom_site_type_symbol
 _atom_site_label
 _atom_site_symmetry_multiplicity
 _atom_site_fract_x
 _atom_site_fract_y
 _atom_site_fract_z
 _atom_site_occupancy
  In0+  In0  1  0.00000000  0.00000000  0.50000000  1.0
  In0+  In1  1  0.00000000  0.00000000  0.00000000  1.0
  In0+  In2  1  0.50000000  0.50000000  0.00000000  1.0
  In0+  In3  1  0.50000000  0.50000000  0.50000000  1.0
  In0+  In4  1  0.64530000  0.14530000  0.33500000  1.0
  In0+  In5  1  0.35470000  0.85470000  0.33500000  1.0
  In0+  In6  1  0.35470000  0.14530000  0.83500000  1.0
  In0+  In7  1  0.64530000  0.85470000  0.83500000  1.0
  In0+  In8  1  0.14530000  0.35470000  0.33500000  1.0
  In0+  In9  1  0.85470000  0.64530000  0.33500000  1.0
  In0+  In10  1  0.14530000  0.64530000  0.83500000  1.0
  In0+  In11  1  0.85470000  0.35470000  0.83500000  1.0
  In0+  In12  1  0.35470000  0.85470000  0.66500000  1.0
  In0+  In13  1  0.64530000  0.14530000  0.66500000  1.0
  In0+  In14  1  0.64530000  0.85470000  0.16500000  1.0
  In0+  In15  1  0.35470000  0.14530000  0.16500000  1.0
  In0+  In16  1  0.85470000  0.64530000  0.66500000  1.0
  In0+  In17  1  0.14530000  0.35470000  0.66500000  1.0
  In0+  In18  1  0.85470000  0.35470000  0.16500000  1.0
  In0+  In19  1  0.14530000  0.64530000  0.16500000  1.0
  Bi0+  Bi20  1  0.00000000  0.00000000  0.25000000  1.0
  Bi0+  Bi21  1  0.00000000  0.00000000  0.75000000  1.0
  Bi0+  Bi22  1  0.50000000  0.50000000  0.75000000  1.0
  Bi0+  Bi23  1  0.50000000  0.50000000  0.25000000  1.0
  Bi0+  Bi24  1  0.84480000  0.34480000  0.50000000  1.0
  Bi0+  Bi25  1  0.15520000  0.65520000  0.50000000  1.0
  Bi0+  Bi26  1  0.15520000  0.34480000  0.00000000  1.0
  Bi0+  Bi27  1  0.84480000  0.65520000  0.00000000  1.0
  Bi0+  Bi28  1  0.34480000  0.15520000  0.50000000  1.0
  Bi0+  Bi29  1  0.65520000  0.84480000  0.50000000  1.0
  Bi0+  Bi30  1  0.34480000  0.84480000  0.00000000  1.0
  Bi0+  Bi31  1  0.65520000  0.15520000  0.00000000  1.0
