# generated using pymatgen
data_Sn4P3
_symmetry_space_group_name_H-M   'P 1'
_cell_length_a   3.96770000
_cell_length_b   3.96770000
_cell_length_c   35.33100000
_cell_angle_alpha   90.00000000
_cell_angle_beta   90.00000000
_cell_angle_gamma   120.00000000
_symmetry_Int_Tables_number   1
_chemical_formula_structural   Sn4P3
_chemical_formula_sum   'Sn12 P9'
_cell_volume   481.68621352
_cell_formula_units_Z   3
loop_
 _symmetry_equiv_pos_site_id
 _symmetry_equiv_pos_as_xyz
  1  'x, y, z'
loop_
 _atom_type_symbol
 _atom_type_oxidation_number
  Sn0+  0.0
  P0+  0.0
loop_
 _atom_site_type_symbol
 _atom_site_label
 _atom_site_symmetry_multiplicity
 _atom_site_fract_x
 _atom_site_fract_y
 _atom_site_fract_z
 _atom_site_occupancy
  Sn0+  Sn0  1  0.00000000  0.00000000  0.86595000  1.0
  Sn0+  Sn1  1  0.00000000  0.00000000  0.13405000  1.0
  Sn0+  Sn2  1  0.66666667  0.33333333  0.19928333  1.0
  Sn0+  Sn3  1  0.66666667  0.33333333  0.46738333  1.0
  Sn0+  Sn4  1  0.33333333  0.66666667  0.53261667  1.0
  Sn0+  Sn5  1  0.33333333  0.66666667  0.80071667  1.0
  Sn0+  Sn6  1  0.00000000  0.00000000  0.71049000  1.0
  Sn0+  Sn7  1  0.00000000  0.00000000  0.28951000  1.0
  Sn0+  Sn8  1  0.66666667  0.33333333  0.04382333  1.0
  Sn0+  Sn9  1  0.66666667  0.33333333  0.62284333  1.0
  Sn0+  Sn10  1  0.33333333  0.66666667  0.37715667  1.0
  Sn0+  Sn11  1  0.33333333  0.66666667  0.95617667  1.0
  P0+  P12  1  0.00000000  0.00000000  0.57110000  1.0
  P0+  P13  1  0.00000000  0.00000000  0.42890000  1.0
  P0+  P14  1  0.66666667  0.33333333  0.90443333  1.0
  P0+  P15  1  0.66666667  0.33333333  0.76223333  1.0
  P0+  P16  1  0.33333333  0.66666667  0.23776667  1.0
  P0+  P17  1  0.33333333  0.66666667  0.09556667  1.0
  P0+  P18  1  0.00000000  0.00000000  0.00000000  1.0
  P0+  P19  1  0.66666667  0.33333333  0.33333333  1.0
  P0+  P20  1  0.33333333  0.66666667  0.66666667  1.0
