# generated using pymatgen
data_SiPd
_symmetry_space_group_name_H-M   'P 1'
_cell_length_a   5.61730000
_cell_length_b   3.39090000
_cell_length_c   6.15340000
_cell_angle_alpha   90.00000000
_cell_angle_beta   90.00000000
_cell_angle_gamma   90.00000000
_symmetry_Int_Tables_number   1
_chemical_formula_structural   SiPd
_chemical_formula_sum   'Si4 Pd4'
_cell_volume   117.20813299
_cell_formula_units_Z   4
loop_
 _symmetry_equiv_pos_site_id
 _symmetry_equiv_pos_as_xyz
  1  'x, y, z'
loop_
 _atom_type_symbol
 _atom_type_oxidation_number
  Si0+  0.0
  Pd0+  0.0
loop_
 _atom_site_type_symbol
 _atom_site_label
 _atom_site_symmetry_multiplicity
 _atom_site_fract_x
 _atom_site_fract_y
 _atom_site_fract_z
 _atom_site_occupancy
  Si0+  Si0  1  0.67700000  0.25000000  0.92780000  1.0
  Si0+  Si1  1  0.17700000  0.25000000  0.57220000  1.0
  Si0+  Si2  1  0.32300000  0.75000000  0.07220000  1.0
  Si0+  Si3  1  0.82300000  0.75000000  0.42780000  1.0
  Pd0+  Pd4  1  0.50430000  0.25000000  0.30940000  1.0
  Pd0+  Pd5  1  0.00430000  0.25000000  0.19060000  1.0
  Pd0+  Pd6  1  0.49570000  0.75000000  0.69060000  1.0
  Pd0+  Pd7  1  0.99570000  0.75000000  0.80940000  1.0
