# generated using pymatgen
data_BiPd
_symmetry_space_group_name_H-M   'P 1'
_cell_length_a   5.67400000
_cell_length_b   5.69100000
_cell_length_c   10.59600000
_cell_angle_alpha   90.00000000
_cell_angle_beta   90.00000000
_cell_angle_gamma   101.40000000
_symmetry_Int_Tables_number   1
_chemical_formula_structural   BiPd
_chemical_formula_sum   'Bi8 Pd8'
_cell_volume   335.40234822
_cell_formula_units_Z   8
loop_
 _symmetry_equiv_pos_site_id
 _symmetry_equiv_pos_as_xyz
  1  'x, y, z'
loop_
 _atom_type_symbol
 _atom_type_oxidation_number
  Bi0+  0.0
  Pd0+  0.0
loop_
 _atom_site_type_symbol
 _atom_site_label
 _atom_site_symmetry_multiplicity
 _atom_site_fract_x
 _atom_site_fract_y
 _atom_site_fract_z
 _atom_site_occupancy
  Bi0+  Bi0  1  0.33300000  0.85800000  0.50000000  1.0
  Bi0+  Bi1  1  0.66700000  0.14200000  0.00000000  1.0
  Bi0+  Bi2  1  0.85700000  0.35200000  0.53400000  1.0
  Bi0+  Bi3  1  0.14300000  0.64800000  0.03400000  1.0
  Bi0+  Bi4  1  0.37700000  0.41100000  0.33400000  1.0
  Bi0+  Bi5  1  0.62300000  0.58900000  0.83400000  1.0
  Bi0+  Bi6  1  0.87900000  0.89100000  0.28700000  1.0
  Bi0+  Bi7  1  0.12100000  0.10900000  0.78700000  1.0
  Pd0+  Pd8  1  0.54300000  0.05000000  0.75300000  1.0
  Pd0+  Pd9  1  0.45700000  0.95000000  0.25300000  1.0
  Pd0+  Pd10  1  0.14300000  0.59800000  0.72200000  1.0
  Pd0+  Pd11  1  0.85700000  0.40200000  0.22200000  1.0
  Pd0+  Pd12  1  0.32300000  0.32700000  0.58600000  1.0
  Pd0+  Pd13  1  0.67700000  0.67300000  0.08600000  1.0
  Pd0+  Pd14  1  0.89300000  0.84500000  0.53900000  1.0
  Pd0+  Pd15  1  0.10700000  0.15500000  0.03900000  1.0
