# generated using pymatgen
data_MgZn
_symmetry_space_group_name_H-M   'P 1'
_cell_length_a   10.66000000
_cell_length_b   10.66000000
_cell_length_c   17.16000000
_cell_angle_alpha   90.00000000
_cell_angle_beta   90.00000000
_cell_angle_gamma   120.00000000
_symmetry_Int_Tables_number   1
_chemical_formula_structural   MgZn
_chemical_formula_sum   'Mg48 Zn48'
_cell_volume   1688.73818898
_cell_formula_units_Z   48
loop_
 _symmetry_equiv_pos_site_id
 _symmetry_equiv_pos_as_xyz
  1  'x, y, z'
loop_
 _atom_type_symbol
 _atom_type_oxidation_number
  Mg0+  0.0
  Zn0+  0.0
loop_
 _atom_site_type_symbol
 _atom_site_label
 _atom_site_symmetry_multiplicity
 _atom_site_fract_x
 _atom_site_fract_y
 _atom_site_fract_z
 _atom_site_occupancy
  Mg0+  Mg0  1  0.16670000  0.33333333  0.03125000  1.0
  Mg0+  Mg1  1  0.66666667  0.33333333  0.03125000  1.0
  Mg0+  Mg2  1  0.16670000  0.83330000  0.03125000  1.0
  Mg0+  Mg3  1  0.66666667  0.83330000  0.03125000  1.0
  Mg0+  Mg4  1  0.16670000  0.33333333  0.21875000  1.0
  Mg0+  Mg5  1  0.66666667  0.33333333  0.21875000  1.0
  Mg0+  Mg6  1  0.16670000  0.83330000  0.21875000  1.0
  Mg0+  Mg7  1  0.66666667  0.83330000  0.21875000  1.0
  Mg0+  Mg8  1  0.33333333  0.16670000  0.28125000  1.0
  Mg0+  Mg9  1  0.83330000  0.16670000  0.28125000  1.0
  Mg0+  Mg10  1  0.33333333  0.66666667  0.28125000  1.0
  Mg0+  Mg11  1  0.83330000  0.66666667  0.28125000  1.0
  Mg0+  Mg12  1  0.33333333  0.16670000  0.46875000  1.0
  Mg0+  Mg13  1  0.83330000  0.16670000  0.46875000  1.0
  Mg0+  Mg14  1  0.33333333  0.66666667  0.46875000  1.0
  Mg0+  Mg15  1  0.83330000  0.66666667  0.46875000  1.0
  Mg0+  Mg16  1  0.16670000  0.33333333  0.53125000  1.0
  Mg0+  Mg17  1  0.66666667  0.33333333  0.53125000  1.0
  Mg0+  Mg18  1  0.16670000  0.83330000  0.53125000  1.0
  Mg0+  Mg19  1  0.66666667  0.83330000  0.53125000  1.0
  Mg0+  Mg20  1  0.33333333  0.16670000  0.78125000  1.0
  Mg0+  Mg21  1  0.83330000  0.16670000  0.78125000  1.0
  Mg0+  Mg22  1  0.33333333  0.66666667  0.78125000  1.0
  Mg0+  Mg23  1  0.83330000  0.66666667  0.78125000  1.0
  Mg0+  Mg24  1  0.33333333  0.16670000  0.96875000  1.0
  Mg0+  Mg25  1  0.83330000  0.16670000  0.96875000  1.0
  Mg0+  Mg26  1  0.33333333  0.66666667  0.96875000  1.0
  Mg0+  Mg27  1  0.83330000  0.66666667  0.96875000  1.0
  Mg0+  Mg28  1  0.16670000  0.33333333  0.71875000  1.0
  Mg0+  Mg29  1  0.66666667  0.33333333  0.71875000  1.0
  Mg0+  Mg30  1  0.16670000  0.83330000  0.71875000  1.0
  Mg0+  Mg31  1  0.66666667  0.83330000  0.71875000  1.0
  Mg0+  Mg32  1  0.00000000  0.00000000  0.03125000  1.0
  Mg0+  Mg33  1  0.00000000  0.00000000  0.21875000  1.0
  Mg0+  Mg34  1  0.00000000  0.00000000  0.46875000  1.0
  Mg0+  Mg35  1  0.00000000  0.00000000  0.78125000  1.0
  Mg0+  Mg36  1  0.50000000  0.00000000  0.96875000  1.0
  Mg0+  Mg37  1  0.50000000  0.00000000  0.28125000  1.0
  Mg0+  Mg38  1  0.50000000  0.00000000  0.53125000  1.0
  Mg0+  Mg39  1  0.50000000  0.00000000  0.71875000  1.0
  Mg0+  Mg40  1  0.00000000  0.50000000  0.96875000  1.0
  Mg0+  Mg41  1  0.00000000  0.50000000  0.28125000  1.0
  Mg0+  Mg42  1  0.00000000  0.50000000  0.53125000  1.0
  Mg0+  Mg43  1  0.00000000  0.50000000  0.71875000  1.0
  Mg0+  Mg44  1  0.50000000  0.50000000  0.03125000  1.0
  Mg0+  Mg45  1  0.50000000  0.50000000  0.21875000  1.0
  Mg0+  Mg46  1  0.50000000  0.50000000  0.46875000  1.0
  Mg0+  Mg47  1  0.50000000  0.50000000  0.78125000  1.0
  Zn0+  Zn48  1  0.41670000  0.33333333  0.12500000  1.0
  Zn0+  Zn49  1  0.91670000  0.33333333  0.12500000  1.0
  Zn0+  Zn50  1  0.41670000  0.83330000  0.12500000  1.0
  Zn0+  Zn51  1  0.91670000  0.83330000  0.12500000  1.0
  Zn0+  Zn52  1  0.41670000  0.33333333  0.62500000  1.0
  Zn0+  Zn53  1  0.91670000  0.33333333  0.62500000  1.0
  Zn0+  Zn54  1  0.41670000  0.83330000  0.62500000  1.0
  Zn0+  Zn55  1  0.91670000  0.83330000  0.62500000  1.0
  Zn0+  Zn56  1  0.16670000  0.08330000  0.12500000  1.0
  Zn0+  Zn57  1  0.66666667  0.08330000  0.12500000  1.0
  Zn0+  Zn58  1  0.16670000  0.58330000  0.12500000  1.0
  Zn0+  Zn59  1  0.66666667  0.58330000  0.12500000  1.0
  Zn0+  Zn60  1  0.16670000  0.08330000  0.62500000  1.0
  Zn0+  Zn61  1  0.66666667  0.08330000  0.62500000  1.0
  Zn0+  Zn62  1  0.16670000  0.58330000  0.62500000  1.0
  Zn0+  Zn63  1  0.66666667  0.58330000  0.62500000  1.0
  Zn0+  Zn64  1  0.41670000  0.08330000  0.12500000  1.0
  Zn0+  Zn65  1  0.91670000  0.08330000  0.12500000  1.0
  Zn0+  Zn66  1  0.41670000  0.58330000  0.12500000  1.0
  Zn0+  Zn67  1  0.91670000  0.58330000  0.12500000  1.0
  Zn0+  Zn68  1  0.41670000  0.08330000  0.62500000  1.0
  Zn0+  Zn69  1  0.91670000  0.08330000  0.62500000  1.0
  Zn0+  Zn70  1  0.41670000  0.58330000  0.62500000  1.0
  Zn0+  Zn71  1  0.91670000  0.58330000  0.62500000  1.0
  Zn0+  Zn72  1  0.08330000  0.16670000  0.37500000  1.0
  Zn0+  Zn73  1  0.58330000  0.16670000  0.37500000  1.0
  Zn0+  Zn74  1  0.08330000  0.66666667  0.37500000  1.0
  Zn0+  Zn75  1  0.58330000  0.66666667  0.37500000  1.0
  Zn0+  Zn76  1  0.08330000  0.16670000  0.87500000  1.0
  Zn0+  Zn77  1  0.58330000  0.16670000  0.87500000  1.0
  Zn0+  Zn78  1  0.08330000  0.66666667  0.87500000  1.0
  Zn0+  Zn79  1  0.58330000  0.66666667  0.87500000  1.0
  Zn0+  Zn80  1  0.33333333  0.41670000  0.37500000  1.0
  Zn0+  Zn81  1  0.83330000  0.41670000  0.37500000  1.0
  Zn0+  Zn82  1  0.33333333  0.91670000  0.37500000  1.0
  Zn0+  Zn83  1  0.83330000  0.91670000  0.37500000  1.0
  Zn0+  Zn84  1  0.33333333  0.41670000  0.87500000  1.0
  Zn0+  Zn85  1  0.83330000  0.41670000  0.87500000  1.0
  Zn0+  Zn86  1  0.33333333  0.91670000  0.87500000  1.0
  Zn0+  Zn87  1  0.83330000  0.91670000  0.87500000  1.0
  Zn0+  Zn88  1  0.08330000  0.41670000  0.37500000  1.0
  Zn0+  Zn89  1  0.58330000  0.41670000  0.37500000  1.0
  Zn0+  Zn90  1  0.08330000  0.91670000  0.37500000  1.0
  Zn0+  Zn91  1  0.58330000  0.91670000  0.37500000  1.0
  Zn0+  Zn92  1  0.08330000  0.41670000  0.87500000  1.0
  Zn0+  Zn93  1  0.58330000  0.41670000  0.87500000  1.0
  Zn0+  Zn94  1  0.08330000  0.91670000  0.87500000  1.0
  Zn0+  Zn95  1  0.58330000  0.91670000  0.87500000  1.0
