# generated using pymatgen
data_MgAlSi
_symmetry_space_group_name_H-M   'P 1'
_cell_length_a   6.75000000
_cell_length_b   4.05000000
_cell_length_c   7.94000000
_cell_angle_alpha   90.00000000
_cell_angle_beta   90.00000000
_cell_angle_gamma   90.00000000
_symmetry_Int_Tables_number   1
_chemical_formula_structural   MgAlSi
_chemical_formula_sum   'Mg4 Al4 Si4'
_cell_volume   217.05975000
_cell_formula_units_Z   4
loop_
 _symmetry_equiv_pos_site_id
 _symmetry_equiv_pos_as_xyz
  1  'x, y, z'
loop_
 _atom_type_symbol
 _atom_type_oxidation_number
  Mg0+  0.0
  Al0+  0.0
  Si0+  0.0
loop_
 _atom_site_type_symbol
 _atom_site_label
 _atom_site_symmetry_multiplicity
 _atom_site_fract_x
 _atom_site_fract_y
 _atom_site_fract_z
 _atom_site_occupancy
  Mg0+  Mg0  1  0.53230000  0.25000000  0.83050000  1.0
  Mg0+  Mg1  1  0.03230000  0.25000000  0.66950000  1.0
  Mg0+  Mg2  1  0.46770000  0.75000000  0.16950000  1.0
  Mg0+  Mg3  1  0.96770000  0.75000000  0.33050000  1.0
  Al0+  Al4  1  0.64190000  0.25000000  0.43260000  1.0
  Al0+  Al5  1  0.14190000  0.25000000  0.06740000  1.0
  Al0+  Al6  1  0.35810000  0.75000000  0.56740000  1.0
  Al0+  Al7  1  0.85810000  0.75000000  0.93260000  1.0
  Si0+  Si8  1  0.76040000  0.25000000  0.12300000  1.0
  Si0+  Si9  1  0.26040000  0.25000000  0.37700000  1.0
  Si0+  Si10  1  0.23960000  0.75000000  0.87700000  1.0
  Si0+  Si11  1  0.73960000  0.75000000  0.62300000  1.0
