# generated using pymatgen
data_Li2BPd3
_symmetry_space_group_name_H-M   'P 1'
_cell_length_a   6.75350000
_cell_length_b   6.75350000
_cell_length_c   6.75350000
_cell_angle_alpha   90.00000000
_cell_angle_beta   90.00000000
_cell_angle_gamma   90.00000000
_symmetry_Int_Tables_number   1
_chemical_formula_structural   Li2BPd3
_chemical_formula_sum   'Li8 B4 Pd12'
_cell_volume   308.02552936
_cell_formula_units_Z   4
loop_
 _symmetry_equiv_pos_site_id
 _symmetry_equiv_pos_as_xyz
  1  'x, y, z'
loop_
 _atom_type_symbol
 _atom_type_oxidation_number
  Li0+  0.0
  B0+  0.0
  Pd0+  0.0
loop_
 _atom_site_type_symbol
 _atom_site_label
 _atom_site_symmetry_multiplicity
 _atom_site_fract_x
 _atom_site_fract_y
 _atom_site_fract_z
 _atom_site_occupancy
  Li0+  Li0  1  0.55510000  0.05510000  0.44490000  1.0
  Li0+  Li1  1  0.44490000  0.55510000  0.05510000  1.0
  Li0+  Li2  1  0.05510000  0.44490000  0.55510000  1.0
  Li0+  Li3  1  0.94490000  0.94490000  0.94490000  1.0
  Li0+  Li4  1  0.19490000  0.69490000  0.80510000  1.0
  Li0+  Li5  1  0.69490000  0.80510000  0.19490000  1.0
  Li0+  Li6  1  0.80510000  0.19490000  0.69490000  1.0
  Li0+  Li7  1  0.30510000  0.30510000  0.30510000  1.0
  B0+  B8  1  0.87500000  0.37500000  0.12500000  1.0
  B0+  B9  1  0.12500000  0.87500000  0.37500000  1.0
  B0+  B10  1  0.37500000  0.12500000  0.87500000  1.0
  B0+  B11  1  0.62500000  0.62500000  0.62500000  1.0
  Pd0+  Pd12  1  0.19570000  0.05430000  0.62500000  1.0
  Pd0+  Pd13  1  0.80430000  0.55430000  0.87500000  1.0
  Pd0+  Pd14  1  0.55430000  0.87500000  0.80430000  1.0
  Pd0+  Pd15  1  0.44570000  0.37500000  0.69570000  1.0
  Pd0+  Pd16  1  0.37500000  0.69570000  0.44570000  1.0
  Pd0+  Pd17  1  0.62500000  0.19570000  0.05430000  1.0
  Pd0+  Pd18  1  0.69570000  0.44570000  0.37500000  1.0
  Pd0+  Pd19  1  0.30430000  0.94570000  0.12500000  1.0
  Pd0+  Pd20  1  0.05430000  0.62500000  0.19570000  1.0
  Pd0+  Pd21  1  0.94570000  0.12500000  0.30430000  1.0
  Pd0+  Pd22  1  0.87500000  0.80430000  0.55430000  1.0
  Pd0+  Pd23  1  0.12500000  0.30430000  0.94570000  1.0
