# generated using pymatgen
data_Rb(OsO3)2
_symmetry_space_group_name_H-M   'P 1'
_cell_length_a   10.10857000
_cell_length_b   10.10857000
_cell_length_c   10.10857000
_cell_angle_alpha   90.00000000
_cell_angle_beta   90.00000000
_cell_angle_gamma   90.00000000
_symmetry_Int_Tables_number   1
_chemical_formula_structural   Rb(OsO3)2
_chemical_formula_sum   'Rb8 Os16 O48'
_cell_volume   1032.92590311
_cell_formula_units_Z   8
loop_
 _symmetry_equiv_pos_site_id
 _symmetry_equiv_pos_as_xyz
  1  'x, y, z'
loop_
 _atom_type_symbol
 _atom_type_oxidation_number
  Rb+  1.0
  Os5.5+  5.5
  O2-  -2.0
loop_
 _atom_site_type_symbol
 _atom_site_label
 _atom_site_symmetry_multiplicity
 _atom_site_fract_x
 _atom_site_fract_y
 _atom_site_fract_z
 _atom_site_occupancy
  Rb+  Rb0  1  0.62500000  0.12500000  0.12500000  1.0
  Rb+  Rb1  1  0.12500000  0.62500000  0.12500000  1.0
  Rb+  Rb2  1  0.12500000  0.12500000  0.62500000  1.0
  Rb+  Rb3  1  0.62500000  0.62500000  0.62500000  1.0
  Rb+  Rb4  1  0.37500000  0.87500000  0.87500000  1.0
  Rb+  Rb5  1  0.87500000  0.37500000  0.87500000  1.0
  Rb+  Rb6  1  0.87500000  0.87500000  0.37500000  1.0
  Rb+  Rb7  1  0.37500000  0.37500000  0.37500000  1.0
  Os5.5+  Os8  1  0.00000000  0.75000000  0.75000000  1.0
  Os5.5+  Os9  1  0.75000000  0.00000000  0.75000000  1.0
  Os5.5+  Os10  1  0.75000000  0.75000000  0.00000000  1.0
  Os5.5+  Os11  1  0.00000000  0.00000000  0.00000000  1.0
  Os5.5+  Os12  1  0.00000000  0.25000000  0.25000000  1.0
  Os5.5+  Os13  1  0.25000000  0.00000000  0.25000000  1.0
  Os5.5+  Os14  1  0.25000000  0.25000000  0.00000000  1.0
  Os5.5+  Os15  1  0.75000000  0.50000000  0.25000000  1.0
  Os5.5+  Os16  1  0.75000000  0.25000000  0.50000000  1.0
  Os5.5+  Os17  1  0.00000000  0.50000000  0.50000000  1.0
  Os5.5+  Os18  1  0.25000000  0.50000000  0.75000000  1.0
  Os5.5+  Os19  1  0.25000000  0.75000000  0.50000000  1.0
  Os5.5+  Os20  1  0.50000000  0.75000000  0.25000000  1.0
  Os5.5+  Os21  1  0.50000000  0.00000000  0.50000000  1.0
  Os5.5+  Os22  1  0.50000000  0.25000000  0.75000000  1.0
  Os5.5+  Os23  1  0.50000000  0.50000000  0.00000000  1.0
  O2-  O24  1  0.87500000  0.87500000  0.06700000  1.0
  O2-  O25  1  0.87500000  0.87500000  0.68300000  1.0
  O2-  O26  1  0.87500000  0.06700000  0.87500000  1.0
  O2-  O27  1  0.87500000  0.68300000  0.87500000  1.0
  O2-  O28  1  0.06700000  0.87500000  0.87500000  1.0
  O2-  O29  1  0.68300000  0.87500000  0.87500000  1.0
  O2-  O30  1  0.12500000  0.12500000  0.93300000  1.0
  O2-  O31  1  0.12500000  0.12500000  0.31700000  1.0
  O2-  O32  1  0.12500000  0.93300000  0.12500000  1.0
  O2-  O33  1  0.12500000  0.31700000  0.12500000  1.0
  O2-  O34  1  0.93300000  0.12500000  0.12500000  1.0
  O2-  O35  1  0.31700000  0.12500000  0.12500000  1.0
  O2-  O36  1  0.87500000  0.37500000  0.56700000  1.0
  O2-  O37  1  0.87500000  0.37500000  0.18300000  1.0
  O2-  O38  1  0.87500000  0.56700000  0.37500000  1.0
  O2-  O39  1  0.87500000  0.18300000  0.37500000  1.0
  O2-  O40  1  0.06700000  0.37500000  0.37500000  1.0
  O2-  O41  1  0.68300000  0.37500000  0.37500000  1.0
  O2-  O42  1  0.12500000  0.62500000  0.43300000  1.0
  O2-  O43  1  0.12500000  0.62500000  0.81700000  1.0
  O2-  O44  1  0.12500000  0.43300000  0.62500000  1.0
  O2-  O45  1  0.12500000  0.81700000  0.62500000  1.0
  O2-  O46  1  0.93300000  0.62500000  0.62500000  1.0
  O2-  O47  1  0.31700000  0.62500000  0.62500000  1.0
  O2-  O48  1  0.37500000  0.87500000  0.56700000  1.0
  O2-  O49  1  0.37500000  0.87500000  0.18300000  1.0
  O2-  O50  1  0.37500000  0.06700000  0.37500000  1.0
  O2-  O51  1  0.37500000  0.68300000  0.37500000  1.0
  O2-  O52  1  0.56700000  0.87500000  0.37500000  1.0
  O2-  O53  1  0.18300000  0.87500000  0.37500000  1.0
  O2-  O54  1  0.62500000  0.12500000  0.43300000  1.0
  O2-  O55  1  0.62500000  0.12500000  0.81700000  1.0
  O2-  O56  1  0.62500000  0.93300000  0.62500000  1.0
  O2-  O57  1  0.62500000  0.31700000  0.62500000  1.0
  O2-  O58  1  0.43300000  0.12500000  0.62500000  1.0
  O2-  O59  1  0.81700000  0.12500000  0.62500000  1.0
  O2-  O60  1  0.37500000  0.37500000  0.06700000  1.0
  O2-  O61  1  0.37500000  0.37500000  0.68300000  1.0
  O2-  O62  1  0.37500000  0.56700000  0.87500000  1.0
  O2-  O63  1  0.37500000  0.18300000  0.87500000  1.0
  O2-  O64  1  0.56700000  0.37500000  0.87500000  1.0
  O2-  O65  1  0.18300000  0.37500000  0.87500000  1.0
  O2-  O66  1  0.62500000  0.62500000  0.93300000  1.0
  O2-  O67  1  0.62500000  0.62500000  0.31700000  1.0
  O2-  O68  1  0.62500000  0.43300000  0.12500000  1.0
  O2-  O69  1  0.62500000  0.81700000  0.12500000  1.0
  O2-  O70  1  0.43300000  0.62500000  0.12500000  1.0
  O2-  O71  1  0.81700000  0.62500000  0.12500000  1.0
