# generated using pymatgen
data_KCa2Nb3O10
_symmetry_space_group_name_H-M   'P 1'
_cell_length_a   7.74180000
_cell_length_b   7.70730000
_cell_length_c   14.85900000
_cell_angle_alpha   90.00000000
_cell_angle_beta   97.51000000
_cell_angle_gamma   90.00000000
_symmetry_Int_Tables_number   1
_chemical_formula_structural   KCa2Nb3O10
_chemical_formula_sum   'K4 Ca8 Nb12 O40'
_cell_volume   879.00708292
_cell_formula_units_Z   4
loop_
 _symmetry_equiv_pos_site_id
 _symmetry_equiv_pos_as_xyz
  1  'x, y, z'
loop_
 _atom_type_symbol
 _atom_type_oxidation_number
  K+  1.0
  Ca2+  2.0
  Nb5+  5.0
  O2-  -2.0
loop_
 _atom_site_type_symbol
 _atom_site_label
 _atom_site_symmetry_multiplicity
 _atom_site_fract_x
 _atom_site_fract_y
 _atom_site_fract_z
 _atom_site_occupancy
  K+  K0  1  0.38400000  0.75000000  0.46500000  1.0
  K+  K1  1  0.61600000  0.25000000  0.53500000  1.0
  K+  K2  1  0.86800000  0.75000000  0.49200000  1.0
  K+  K3  1  0.13200000  0.25000000  0.50800000  1.0
  Ca2+  Ca4  1  0.22000000  0.25000000  0.84700000  1.0
  Ca2+  Ca5  1  0.78000000  0.75000000  0.15300000  1.0
  Ca2+  Ca6  1  0.28300000  0.25000000  0.15400000  1.0
  Ca2+  Ca7  1  0.71700000  0.75000000  0.84600000  1.0
  Ca2+  Ca8  1  0.67800000  0.25000000  0.87200000  1.0
  Ca2+  Ca9  1  0.32200000  0.75000000  0.12800000  1.0
  Ca2+  Ca10  1  0.79900000  0.25000000  0.14900000  1.0
  Ca2+  Ca11  1  0.20100000  0.75000000  0.85100000  1.0
  Nb5+  Nb12  1  0.00000000  0.50000000  0.00000000  1.0
  Nb5+  Nb13  1  0.00000000  0.00000000  0.00000000  1.0
  Nb5+  Nb14  1  0.50000000  0.50000000  0.00000000  1.0
  Nb5+  Nb15  1  0.50000000  0.00000000  0.00000000  1.0
  Nb5+  Nb16  1  0.42900000  0.50400000  0.71520000  1.0
  Nb5+  Nb17  1  0.57100000  0.00400000  0.28480000  1.0
  Nb5+  Nb18  1  0.57100000  0.49600000  0.28480000  1.0
  Nb5+  Nb19  1  0.42900000  0.99600000  0.71520000  1.0
  Nb5+  Nb20  1  0.92500000  0.48700000  0.71100000  1.0
  Nb5+  Nb21  1  0.07500000  0.98700000  0.28900000  1.0
  Nb5+  Nb22  1  0.07500000  0.51300000  0.28900000  1.0
  Nb5+  Nb23  1  0.92500000  0.01300000  0.71100000  1.0
  O2-  O24  1  0.50500000  0.53300000  0.87100000  1.0
  O2-  O25  1  0.49500000  0.03300000  0.12900000  1.0
  O2-  O26  1  0.49500000  0.46700000  0.12900000  1.0
  O2-  O27  1  0.50500000  0.96700000  0.87100000  1.0
  O2-  O28  1  0.40600000  0.48300000  0.59500000  1.0
  O2-  O29  1  0.59400000  0.98300000  0.40500000  1.0
  O2-  O30  1  0.59400000  0.51700000  0.40500000  1.0
  O2-  O31  1  0.40600000  0.01700000  0.59500000  1.0
  O2-  O32  1  0.68400000  0.51200000  0.73000000  1.0
  O2-  O33  1  0.31600000  0.01200000  0.27000000  1.0
  O2-  O34  1  0.31600000  0.48800000  0.27000000  1.0
  O2-  O35  1  0.68400000  0.98800000  0.73000000  1.0
  O2-  O36  1  0.45900000  0.25000000  0.75100000  1.0
  O2-  O37  1  0.54100000  0.75000000  0.24900000  1.0
  O2-  O38  1  0.42600000  0.75000000  0.72500000  1.0
  O2-  O39  1  0.57400000  0.25000000  0.27500000  1.0
  O2-  O40  1  0.42400000  0.25000000  0.98600000  1.0
  O2-  O41  1  0.57600000  0.75000000  0.01400000  1.0
  O2-  O42  1  0.24500000  0.55300000  0.98000000  1.0
  O2-  O43  1  0.75500000  0.05300000  0.02000000  1.0
  O2-  O44  1  0.75500000  0.44700000  0.02000000  1.0
  O2-  O45  1  0.24500000  0.94700000  0.98000000  1.0
  O2-  O46  1  0.99200000  0.55200000  0.87000000  1.0
  O2-  O47  1  0.00800000  0.05200000  0.13000000  1.0
  O2-  O48  1  0.00800000  0.44800000  0.13000000  1.0
  O2-  O49  1  0.99200000  0.94800000  0.87000000  1.0
  O2-  O50  1  0.91900000  0.45300000  0.59400000  1.0
  O2-  O51  1  0.08100000  0.95300000  0.40600000  1.0
  O2-  O52  1  0.08100000  0.54700000  0.40600000  1.0
  O2-  O53  1  0.91900000  0.04700000  0.59400000  1.0
  O2-  O54  1  0.18200000  0.47400000  0.75200000  1.0
  O2-  O55  1  0.81800000  0.97400000  0.24800000  1.0
  O2-  O56  1  0.81800000  0.52600000  0.24800000  1.0
  O2-  O57  1  0.18200000  0.02600000  0.75200000  1.0
  O2-  O58  1  0.93500000  0.25000000  0.76700000  1.0
  O2-  O59  1  0.06500000  0.75000000  0.23300000  1.0
  O2-  O60  1  0.93100000  0.75000000  0.71800000  1.0
  O2-  O61  1  0.06900000  0.25000000  0.28200000  1.0
  O2-  O62  1  0.02700000  0.25000000  0.97200000  1.0
  O2-  O63  1  0.97300000  0.75000000  0.02800000  1.0
