# generated using pymatgen
data_SnPd2
_symmetry_space_group_name_H-M   'P 1'
_cell_length_a   5.64700000
_cell_length_b   4.29400000
_cell_length_c   8.10300000
_cell_angle_alpha   90.00000000
_cell_angle_beta   90.00000000
_cell_angle_gamma   90.00000000
_symmetry_Int_Tables_number   1
_chemical_formula_structural   SnPd2
_chemical_formula_sum   'Sn4 Pd8'
_cell_volume   196.48331045
_cell_formula_units_Z   4
loop_
 _symmetry_equiv_pos_site_id
 _symmetry_equiv_pos_as_xyz
  1  'x, y, z'
loop_
 _atom_type_symbol
 _atom_type_oxidation_number
  Sn0+  0.0
  Pd0+  0.0
loop_
 _atom_site_type_symbol
 _atom_site_label
 _atom_site_symmetry_multiplicity
 _atom_site_fract_x
 _atom_site_fract_y
 _atom_site_fract_z
 _atom_site_occupancy
  Sn0+  Sn0  1  0.20300000  0.25000000  0.88600000  1.0
  Sn0+  Sn1  1  0.70300000  0.25000000  0.61400000  1.0
  Sn0+  Sn2  1  0.79700000  0.75000000  0.11400000  1.0
  Sn0+  Sn3  1  0.29700000  0.75000000  0.38600000  1.0
  Pd0+  Pd4  1  0.55400000  0.25000000  0.29900000  1.0
  Pd0+  Pd5  1  0.05400000  0.25000000  0.20100000  1.0
  Pd0+  Pd6  1  0.44600000  0.75000000  0.70100000  1.0
  Pd0+  Pd7  1  0.94600000  0.75000000  0.79900000  1.0
  Pd0+  Pd8  1  0.68300000  0.25000000  0.93400000  1.0
  Pd0+  Pd9  1  0.18300000  0.25000000  0.56600000  1.0
  Pd0+  Pd10  1  0.31700000  0.75000000  0.06600000  1.0
  Pd0+  Pd11  1  0.81700000  0.75000000  0.43400000  1.0
