# generated using pymatgen
data_SnBi
_symmetry_space_group_name_H-M   'P 1'
_cell_length_a   10.39600000
_cell_length_b   6.22100000
_cell_length_c   6.21900000
_cell_angle_alpha   90.00000000
_cell_angle_beta   90.00000000
_cell_angle_gamma   90.00000000
_symmetry_Int_Tables_number   1
_chemical_formula_structural   SnBi
_chemical_formula_sum   'Sn8 Bi8'
_cell_volume   402.20459600
_cell_formula_units_Z   8
loop_
 _symmetry_equiv_pos_site_id
 _symmetry_equiv_pos_as_xyz
  1  'x, y, z'
loop_
 _atom_type_symbol
 _atom_type_oxidation_number
  Sn0+  0.0
  Bi0+  0.0
loop_
 _atom_site_type_symbol
 _atom_site_label
 _atom_site_symmetry_multiplicity
 _atom_site_fract_x
 _atom_site_fract_y
 _atom_site_fract_z
 _atom_site_occupancy
  Sn0+  Sn0  1  0.78300000  0.50000000  0.50000000  1.0
  Sn0+  Sn1  1  0.78300000  0.00000000  0.00000000  1.0
  Sn0+  Sn2  1  0.21700000  0.50000000  0.50000000  1.0
  Sn0+  Sn3  1  0.21700000  0.00000000  0.00000000  1.0
  Sn0+  Sn4  1  0.28300000  0.00000000  0.50000000  1.0
  Sn0+  Sn5  1  0.28300000  0.50000000  0.00000000  1.0
  Sn0+  Sn6  1  0.71700000  0.00000000  0.50000000  1.0
  Sn0+  Sn7  1  0.71700000  0.50000000  0.00000000  1.0
  Bi0+  Bi8  1  0.00000000  0.33300000  0.81600000  1.0
  Bi0+  Bi9  1  0.00000000  0.66700000  0.18400000  1.0
  Bi0+  Bi10  1  0.00000000  0.16700000  0.31600000  1.0
  Bi0+  Bi11  1  0.00000000  0.83300000  0.68400000  1.0
  Bi0+  Bi12  1  0.50000000  0.83300000  0.81600000  1.0
  Bi0+  Bi13  1  0.50000000  0.16700000  0.18400000  1.0
  Bi0+  Bi14  1  0.50000000  0.66700000  0.31600000  1.0
  Bi0+  Bi15  1  0.50000000  0.33300000  0.68400000  1.0
