# generated using pymatgen
data_NbPS
_symmetry_space_group_name_H-M   'P 1'
_cell_length_a   3.43800000
_cell_length_b   11.88000000
_cell_length_c   4.72500000
_cell_angle_alpha   90.00000000
_cell_angle_beta   90.00000000
_cell_angle_gamma   90.00000000
_symmetry_Int_Tables_number   1
_chemical_formula_structural   NbPS
_chemical_formula_sum   'Nb4 P4 S4'
_cell_volume   192.98525400
_cell_formula_units_Z   4
loop_
 _symmetry_equiv_pos_site_id
 _symmetry_equiv_pos_as_xyz
  1  'x, y, z'
loop_
 _atom_type_symbol
 _atom_type_oxidation_number
  Nb3+  3.0
  P-  -1.0
  S2-  -2.0
loop_
 _atom_site_type_symbol
 _atom_site_label
 _atom_site_symmetry_multiplicity
 _atom_site_fract_x
 _atom_site_fract_y
 _atom_site_fract_z
 _atom_site_occupancy
  Nb3+  Nb0  1  0.00000000  0.12320000  0.50000000  1.0
  Nb3+  Nb1  1  0.00000000  0.87680000  0.50000000  1.0
  Nb3+  Nb2  1  0.50000000  0.62320000  0.00000000  1.0
  Nb3+  Nb3  1  0.50000000  0.37680000  0.00000000  1.0
  P-  P4  1  0.50000000  0.00000000  0.76500000  1.0
  P-  P5  1  0.50000000  0.00000000  0.23500000  1.0
  P-  P6  1  0.00000000  0.50000000  0.26500000  1.0
  P-  P7  1  0.00000000  0.50000000  0.73500000  1.0
  S2-  S8  1  0.00000000  0.21200000  0.00000000  1.0
  S2-  S9  1  0.00000000  0.78800000  0.00000000  1.0
  S2-  S10  1  0.50000000  0.71200000  0.50000000  1.0
  S2-  S11  1  0.50000000  0.28800000  0.50000000  1.0
