# generated using pymatgen
data_Ba(Ge3Pt)4
_symmetry_space_group_name_H-M   'P 1'
_cell_length_a   8.68890000
_cell_length_b   8.68890000
_cell_length_c   8.68890000
_cell_angle_alpha   90.00000000
_cell_angle_beta   90.00000000
_cell_angle_gamma   90.00000000
_symmetry_Int_Tables_number   1
_chemical_formula_structural   Ba(Ge3Pt)4
_chemical_formula_sum   'Ba2 Ge24 Pt8'
_cell_volume   655.98573741
_cell_formula_units_Z   2
loop_
 _symmetry_equiv_pos_site_id
 _symmetry_equiv_pos_as_xyz
  1  'x, y, z'
loop_
 _atom_type_symbol
 _atom_type_oxidation_number
  Ba0+  0.0
  Ge0+  0.0
  Pt0+  0.0
loop_
 _atom_site_type_symbol
 _atom_site_label
 _atom_site_symmetry_multiplicity
 _atom_site_fract_x
 _atom_site_fract_y
 _atom_site_fract_z
 _atom_site_occupancy
  Ba0+  Ba0  1  0.00000000  0.00000000  0.00000000  1.0
  Ba0+  Ba1  1  0.50000000  0.50000000  0.50000000  1.0
  Ge0+  Ge2  1  0.64317000  0.00000000  0.15302000  1.0
  Ge0+  Ge3  1  0.35683000  0.00000000  0.84698000  1.0
  Ge0+  Ge4  1  0.35683000  0.00000000  0.15302000  1.0
  Ge0+  Ge5  1  0.64317000  0.00000000  0.84698000  1.0
  Ge0+  Ge6  1  0.15302000  0.64317000  0.00000000  1.0
  Ge0+  Ge7  1  0.84698000  0.35683000  0.00000000  1.0
  Ge0+  Ge8  1  0.15302000  0.35683000  0.00000000  1.0
  Ge0+  Ge9  1  0.84698000  0.64317000  0.00000000  1.0
  Ge0+  Ge10  1  0.00000000  0.15302000  0.64317000  1.0
  Ge0+  Ge11  1  0.00000000  0.84698000  0.35683000  1.0
  Ge0+  Ge12  1  0.00000000  0.15302000  0.35683000  1.0
  Ge0+  Ge13  1  0.00000000  0.84698000  0.64317000  1.0
  Ge0+  Ge14  1  0.14317000  0.50000000  0.65302000  1.0
  Ge0+  Ge15  1  0.85683000  0.50000000  0.34698000  1.0
  Ge0+  Ge16  1  0.85683000  0.50000000  0.65302000  1.0
  Ge0+  Ge17  1  0.14317000  0.50000000  0.34698000  1.0
  Ge0+  Ge18  1  0.65302000  0.14317000  0.50000000  1.0
  Ge0+  Ge19  1  0.34698000  0.85683000  0.50000000  1.0
  Ge0+  Ge20  1  0.65302000  0.85683000  0.50000000  1.0
  Ge0+  Ge21  1  0.34698000  0.14317000  0.50000000  1.0
  Ge0+  Ge22  1  0.50000000  0.65302000  0.14317000  1.0
  Ge0+  Ge23  1  0.50000000  0.34698000  0.85683000  1.0
  Ge0+  Ge24  1  0.50000000  0.65302000  0.85683000  1.0
  Ge0+  Ge25  1  0.50000000  0.34698000  0.14317000  1.0
  Pt0+  Pt26  1  0.75000000  0.25000000  0.25000000  1.0
  Pt0+  Pt27  1  0.25000000  0.25000000  0.75000000  1.0
  Pt0+  Pt28  1  0.25000000  0.75000000  0.25000000  1.0
  Pt0+  Pt29  1  0.75000000  0.75000000  0.75000000  1.0
  Pt0+  Pt30  1  0.25000000  0.75000000  0.75000000  1.0
  Pt0+  Pt31  1  0.75000000  0.75000000  0.25000000  1.0
  Pt0+  Pt32  1  0.75000000  0.25000000  0.75000000  1.0
  Pt0+  Pt33  1  0.25000000  0.25000000  0.25000000  1.0
