# generated using pymatgen
data_Mg10B16Ir19
_symmetry_space_group_name_H-M   'P 1'
_cell_length_a   10.56782000
_cell_length_b   10.56782000
_cell_length_c   10.56782000
_cell_angle_alpha   90.00000000
_cell_angle_beta   90.00000000
_cell_angle_gamma   90.00000000
_symmetry_Int_Tables_number   1
_chemical_formula_structural   Mg10B16Ir19
_chemical_formula_sum   'Mg20 B32 Ir38'
_cell_volume   1180.20166284
_cell_formula_units_Z   2
loop_
 _symmetry_equiv_pos_site_id
 _symmetry_equiv_pos_as_xyz
  1  'x, y, z'
loop_
 _atom_type_symbol
 _atom_type_oxidation_number
  Mg0+  0.0
  B0+  0.0
  Ir0+  0.0
loop_
 _atom_site_type_symbol
 _atom_site_label
 _atom_site_symmetry_multiplicity
 _atom_site_fract_x
 _atom_site_fract_y
 _atom_site_fract_z
 _atom_site_occupancy
  Mg0+  Mg0  1  0.66690000  0.66690000  0.33310000  1.0
  Mg0+  Mg1  1  0.66690000  0.33310000  0.66690000  1.0
  Mg0+  Mg2  1  0.33310000  0.66690000  0.66690000  1.0
  Mg0+  Mg3  1  0.33310000  0.33310000  0.33310000  1.0
  Mg0+  Mg4  1  0.16690000  0.16690000  0.83310000  1.0
  Mg0+  Mg5  1  0.16690000  0.83310000  0.16690000  1.0
  Mg0+  Mg6  1  0.83310000  0.16690000  0.16690000  1.0
  Mg0+  Mg7  1  0.83310000  0.83310000  0.83310000  1.0
  Mg0+  Mg8  1  0.65270000  0.00000000  0.00000000  1.0
  Mg0+  Mg9  1  0.00000000  0.00000000  0.34730000  1.0
  Mg0+  Mg10  1  0.00000000  0.65270000  0.00000000  1.0
  Mg0+  Mg11  1  0.00000000  0.00000000  0.65270000  1.0
  Mg0+  Mg12  1  0.00000000  0.34730000  0.00000000  1.0
  Mg0+  Mg13  1  0.34730000  0.00000000  0.00000000  1.0
  Mg0+  Mg14  1  0.15270000  0.50000000  0.50000000  1.0
  Mg0+  Mg15  1  0.50000000  0.50000000  0.84730000  1.0
  Mg0+  Mg16  1  0.50000000  0.15270000  0.50000000  1.0
  Mg0+  Mg17  1  0.50000000  0.50000000  0.15270000  1.0
  Mg0+  Mg18  1  0.50000000  0.84730000  0.50000000  1.0
  Mg0+  Mg19  1  0.84730000  0.50000000  0.50000000  1.0
  B0+  B20  1  0.88730000  0.88730000  0.11270000  1.0
  B0+  B21  1  0.88730000  0.11270000  0.88730000  1.0
  B0+  B22  1  0.11270000  0.88730000  0.88730000  1.0
  B0+  B23  1  0.11270000  0.11270000  0.11270000  1.0
  B0+  B24  1  0.38730000  0.38730000  0.61270000  1.0
  B0+  B25  1  0.38730000  0.61270000  0.38730000  1.0
  B0+  B26  1  0.61270000  0.38730000  0.38730000  1.0
  B0+  B27  1  0.61270000  0.61270000  0.61270000  1.0
  B0+  B28  1  0.58600000  0.83610000  0.16390000  1.0
  B0+  B29  1  0.83610000  0.83610000  0.41400000  1.0
  B0+  B30  1  0.83610000  0.58600000  0.16390000  1.0
  B0+  B31  1  0.58600000  0.16390000  0.83610000  1.0
  B0+  B32  1  0.83610000  0.16390000  0.58600000  1.0
  B0+  B33  1  0.83610000  0.41400000  0.83610000  1.0
  B0+  B34  1  0.41400000  0.83610000  0.83610000  1.0
  B0+  B35  1  0.16390000  0.83610000  0.58600000  1.0
  B0+  B36  1  0.16390000  0.58600000  0.83610000  1.0
  B0+  B37  1  0.41400000  0.16390000  0.16390000  1.0
  B0+  B38  1  0.16390000  0.16390000  0.41400000  1.0
  B0+  B39  1  0.16390000  0.41400000  0.16390000  1.0
  B0+  B40  1  0.08600000  0.33610000  0.66390000  1.0
  B0+  B41  1  0.33610000  0.33610000  0.91400000  1.0
  B0+  B42  1  0.33610000  0.08600000  0.66390000  1.0
  B0+  B43  1  0.08600000  0.66390000  0.33610000  1.0
  B0+  B44  1  0.33610000  0.66390000  0.08600000  1.0
  B0+  B45  1  0.33610000  0.91400000  0.33610000  1.0
  B0+  B46  1  0.91400000  0.33610000  0.33610000  1.0
  B0+  B47  1  0.66390000  0.33610000  0.08600000  1.0
  B0+  B48  1  0.66390000  0.08600000  0.33610000  1.0
  B0+  B49  1  0.91400000  0.66390000  0.66390000  1.0
  B0+  B50  1  0.66390000  0.66390000  0.91400000  1.0
  B0+  B51  1  0.66390000  0.91400000  0.66390000  1.0
  Ir0+  Ir52  1  0.00000000  0.00000000  0.00000000  1.0
  Ir0+  Ir53  1  0.50000000  0.50000000  0.50000000  1.0
  Ir0+  Ir54  1  0.50000000  0.75000000  0.00000000  1.0
  Ir0+  Ir55  1  0.75000000  0.00000000  0.50000000  1.0
  Ir0+  Ir56  1  0.00000000  0.50000000  0.25000000  1.0
  Ir0+  Ir57  1  0.50000000  0.00000000  0.25000000  1.0
  Ir0+  Ir58  1  0.75000000  0.50000000  0.00000000  1.0
  Ir0+  Ir59  1  0.00000000  0.75000000  0.50000000  1.0
  Ir0+  Ir60  1  0.50000000  0.25000000  0.00000000  1.0
  Ir0+  Ir61  1  0.00000000  0.50000000  0.75000000  1.0
  Ir0+  Ir62  1  0.50000000  0.00000000  0.75000000  1.0
  Ir0+  Ir63  1  0.00000000  0.25000000  0.50000000  1.0
  Ir0+  Ir64  1  0.25000000  0.00000000  0.50000000  1.0
  Ir0+  Ir65  1  0.25000000  0.50000000  0.00000000  1.0
  Ir0+  Ir66  1  0.74752000  0.74752000  0.07025000  1.0
  Ir0+  Ir67  1  0.74752000  0.92975000  0.25248000  1.0
  Ir0+  Ir68  1  0.92975000  0.74752000  0.25248000  1.0
  Ir0+  Ir69  1  0.74752000  0.25248000  0.92975000  1.0
  Ir0+  Ir70  1  0.74752000  0.07025000  0.74752000  1.0
  Ir0+  Ir71  1  0.92975000  0.25248000  0.74752000  1.0
  Ir0+  Ir72  1  0.25248000  0.74752000  0.92975000  1.0
  Ir0+  Ir73  1  0.25248000  0.92975000  0.74752000  1.0
  Ir0+  Ir74  1  0.07025000  0.74752000  0.74752000  1.0
  Ir0+  Ir75  1  0.25248000  0.25248000  0.07025000  1.0
  Ir0+  Ir76  1  0.25248000  0.07025000  0.25248000  1.0
  Ir0+  Ir77  1  0.07025000  0.25248000  0.25248000  1.0
  Ir0+  Ir78  1  0.24752000  0.24752000  0.57025000  1.0
  Ir0+  Ir79  1  0.24752000  0.42975000  0.75248000  1.0
  Ir0+  Ir80  1  0.42975000  0.24752000  0.75248000  1.0
  Ir0+  Ir81  1  0.24752000  0.75248000  0.42975000  1.0
  Ir0+  Ir82  1  0.24752000  0.57025000  0.24752000  1.0
  Ir0+  Ir83  1  0.42975000  0.75248000  0.24752000  1.0
  Ir0+  Ir84  1  0.75248000  0.24752000  0.42975000  1.0
  Ir0+  Ir85  1  0.75248000  0.42975000  0.24752000  1.0
  Ir0+  Ir86  1  0.57025000  0.24752000  0.24752000  1.0
  Ir0+  Ir87  1  0.75248000  0.75248000  0.57025000  1.0
  Ir0+  Ir88  1  0.75248000  0.57025000  0.75248000  1.0
  Ir0+  Ir89  1  0.57025000  0.75248000  0.75248000  1.0
