# generated using pymatgen
data_Ba(NiAs)2
_symmetry_space_group_name_H-M   'P 1'
_cell_length_a   6.51700000
_cell_length_b   6.45870000
_cell_length_c   6.44400000
_cell_angle_alpha   37.71900000
_cell_angle_beta   54.00900000
_cell_angle_gamma   37.38200000
_symmetry_Int_Tables_number   1
_chemical_formula_structural   Ba(NiAs)2
_chemical_formula_sum   'Ba1 Ni2 As2'
_cell_volume   100.13397055
_cell_formula_units_Z   1
loop_
 _symmetry_equiv_pos_site_id
 _symmetry_equiv_pos_as_xyz
  1  'x, y, z'
loop_
 _atom_type_symbol
 _atom_type_oxidation_number
  Ba2+  2.0
  Ni2+  2.0
  As3-  -3.0
loop_
 _atom_site_type_symbol
 _atom_site_label
 _atom_site_symmetry_multiplicity
 _atom_site_fract_x
 _atom_site_fract_y
 _atom_site_fract_z
 _atom_site_occupancy
  Ba2+  Ba0  1  0.00000000  0.00000000  0.00000000  1.0
  Ni2+  Ni1  1  0.77810000  0.47450000  0.24870000  1.0
  Ni2+  Ni2  1  0.22190000  0.52550000  0.75130000  1.0
  As3-  As3  1  0.63310000  0.02150000  0.65560000  1.0
  As3-  As4  1  0.36690000  0.97850000  0.34440000  1.0
