# generated using pymatgen
data_Sb7Mo3
_symmetry_space_group_name_H-M   'P 1'
_cell_length_a   9.55500000
_cell_length_b   9.55500000
_cell_length_c   9.53600000
_cell_angle_alpha   90.00000000
_cell_angle_beta   90.00000000
_cell_angle_gamma   90.00000000
_symmetry_Int_Tables_number   1
_chemical_formula_structural   Sb7Mo3
_chemical_formula_sum   'Sb28 Mo12'
_cell_volume   870.61796640
_cell_formula_units_Z   4
loop_
 _symmetry_equiv_pos_site_id
 _symmetry_equiv_pos_as_xyz
  1  'x, y, z'
loop_
 _atom_type_symbol
 _atom_type_oxidation_number
  Sb0+  0.0
  Mo0+  0.0
loop_
 _atom_site_type_symbol
 _atom_site_label
 _atom_site_symmetry_multiplicity
 _atom_site_fract_x
 _atom_site_fract_y
 _atom_site_fract_z
 _atom_site_occupancy
  Sb0+  Sb0  1  0.50000000  0.00000000  0.75000000  1.0
  Sb0+  Sb1  1  0.00000000  0.50000000  0.75000000  1.0
  Sb0+  Sb2  1  0.50000000  0.00000000  0.25000000  1.0
  Sb0+  Sb3  1  0.00000000  0.50000000  0.25000000  1.0
  Sb0+  Sb4  1  0.50000000  0.24630000  0.00000000  1.0
  Sb0+  Sb5  1  0.50000000  0.75370000  0.00000000  1.0
  Sb0+  Sb6  1  0.75370000  0.50000000  0.00000000  1.0
  Sb0+  Sb7  1  0.24630000  0.50000000  0.00000000  1.0
  Sb0+  Sb8  1  0.00000000  0.74630000  0.50000000  1.0
  Sb0+  Sb9  1  0.00000000  0.25370000  0.50000000  1.0
  Sb0+  Sb10  1  0.25370000  0.00000000  0.50000000  1.0
  Sb0+  Sb11  1  0.74630000  0.00000000  0.50000000  1.0
  Sb0+  Sb12  1  0.16270000  0.16270000  0.83750000  1.0
  Sb0+  Sb13  1  0.83730000  0.83730000  0.83750000  1.0
  Sb0+  Sb14  1  0.83730000  0.16270000  0.83750000  1.0
  Sb0+  Sb15  1  0.16270000  0.83730000  0.83750000  1.0
  Sb0+  Sb16  1  0.83730000  0.83730000  0.16250000  1.0
  Sb0+  Sb17  1  0.16270000  0.16270000  0.16250000  1.0
  Sb0+  Sb18  1  0.16270000  0.83730000  0.16250000  1.0
  Sb0+  Sb19  1  0.83730000  0.16270000  0.16250000  1.0
  Sb0+  Sb20  1  0.66270000  0.66270000  0.33750000  1.0
  Sb0+  Sb21  1  0.33730000  0.33730000  0.33750000  1.0
  Sb0+  Sb22  1  0.33730000  0.66270000  0.33750000  1.0
  Sb0+  Sb23  1  0.66270000  0.33730000  0.33750000  1.0
  Sb0+  Sb24  1  0.33730000  0.33730000  0.66250000  1.0
  Sb0+  Sb25  1  0.66270000  0.66270000  0.66250000  1.0
  Sb0+  Sb26  1  0.66270000  0.33730000  0.66250000  1.0
  Sb0+  Sb27  1  0.33730000  0.66270000  0.66250000  1.0
  Mo0+  Mo28  1  0.00000000  0.34400000  0.00000000  1.0
  Mo0+  Mo29  1  0.00000000  0.65600000  0.00000000  1.0
  Mo0+  Mo30  1  0.65600000  0.00000000  0.00000000  1.0
  Mo0+  Mo31  1  0.34400000  0.00000000  0.00000000  1.0
  Mo0+  Mo32  1  0.50000000  0.84400000  0.50000000  1.0
  Mo0+  Mo33  1  0.50000000  0.15600000  0.50000000  1.0
  Mo0+  Mo34  1  0.15600000  0.50000000  0.50000000  1.0
  Mo0+  Mo35  1  0.84400000  0.50000000  0.50000000  1.0
  Mo0+  Mo36  1  0.00000000  0.00000000  0.65200000  1.0
  Mo0+  Mo37  1  0.00000000  0.00000000  0.34800000  1.0
  Mo0+  Mo38  1  0.50000000  0.50000000  0.15200000  1.0
  Mo0+  Mo39  1  0.50000000  0.50000000  0.84800000  1.0
