# generated using pymatgen
data_Zr3V3O
_symmetry_space_group_name_H-M   'P 1'
_cell_length_a   12.15950000
_cell_length_b   12.15950000
_cell_length_c   12.15950000
_cell_angle_alpha   90.00000000
_cell_angle_beta   90.00000000
_cell_angle_gamma   90.00000000
_symmetry_Int_Tables_number   1
_chemical_formula_structural   Zr3V3O
_chemical_formula_sum   'Zr48 V48 O16'
_cell_volume   1797.82390672
_cell_formula_units_Z   16
loop_
 _symmetry_equiv_pos_site_id
 _symmetry_equiv_pos_as_xyz
  1  'x, y, z'
loop_
 _atom_type_symbol
 _atom_type_oxidation_number
  Zr0+  0.0
  V0+  0.0
  O0+  0.0
loop_
 _atom_site_type_symbol
 _atom_site_label
 _atom_site_symmetry_multiplicity
 _atom_site_fract_x
 _atom_site_fract_y
 _atom_site_fract_z
 _atom_site_occupancy
  Zr0+  Zr0  1  0.87500000  0.87500000  0.18000000  1.0
  Zr0+  Zr1  1  0.87500000  0.87500000  0.57000000  1.0
  Zr0+  Zr2  1  0.87500000  0.18000000  0.87500000  1.0
  Zr0+  Zr3  1  0.87500000  0.57000000  0.87500000  1.0
  Zr0+  Zr4  1  0.18000000  0.87500000  0.87500000  1.0
  Zr0+  Zr5  1  0.57000000  0.87500000  0.87500000  1.0
  Zr0+  Zr6  1  0.12500000  0.12500000  0.82000000  1.0
  Zr0+  Zr7  1  0.12500000  0.12500000  0.43000000  1.0
  Zr0+  Zr8  1  0.12500000  0.82000000  0.12500000  1.0
  Zr0+  Zr9  1  0.12500000  0.43000000  0.12500000  1.0
  Zr0+  Zr10  1  0.82000000  0.12500000  0.12500000  1.0
  Zr0+  Zr11  1  0.43000000  0.12500000  0.12500000  1.0
  Zr0+  Zr12  1  0.87500000  0.37500000  0.68000000  1.0
  Zr0+  Zr13  1  0.87500000  0.37500000  0.07000000  1.0
  Zr0+  Zr14  1  0.87500000  0.68000000  0.37500000  1.0
  Zr0+  Zr15  1  0.87500000  0.07000000  0.37500000  1.0
  Zr0+  Zr16  1  0.18000000  0.37500000  0.37500000  1.0
  Zr0+  Zr17  1  0.57000000  0.37500000  0.37500000  1.0
  Zr0+  Zr18  1  0.12500000  0.62500000  0.32000000  1.0
  Zr0+  Zr19  1  0.12500000  0.62500000  0.93000000  1.0
  Zr0+  Zr20  1  0.12500000  0.32000000  0.62500000  1.0
  Zr0+  Zr21  1  0.12500000  0.93000000  0.62500000  1.0
  Zr0+  Zr22  1  0.82000000  0.62500000  0.62500000  1.0
  Zr0+  Zr23  1  0.43000000  0.62500000  0.62500000  1.0
  Zr0+  Zr24  1  0.37500000  0.87500000  0.68000000  1.0
  Zr0+  Zr25  1  0.37500000  0.87500000  0.07000000  1.0
  Zr0+  Zr26  1  0.37500000  0.18000000  0.37500000  1.0
  Zr0+  Zr27  1  0.37500000  0.57000000  0.37500000  1.0
  Zr0+  Zr28  1  0.68000000  0.87500000  0.37500000  1.0
  Zr0+  Zr29  1  0.07000000  0.87500000  0.37500000  1.0
  Zr0+  Zr30  1  0.62500000  0.12500000  0.32000000  1.0
  Zr0+  Zr31  1  0.62500000  0.12500000  0.93000000  1.0
  Zr0+  Zr32  1  0.62500000  0.82000000  0.62500000  1.0
  Zr0+  Zr33  1  0.62500000  0.43000000  0.62500000  1.0
  Zr0+  Zr34  1  0.32000000  0.12500000  0.62500000  1.0
  Zr0+  Zr35  1  0.93000000  0.12500000  0.62500000  1.0
  Zr0+  Zr36  1  0.37500000  0.37500000  0.18000000  1.0
  Zr0+  Zr37  1  0.37500000  0.37500000  0.57000000  1.0
  Zr0+  Zr38  1  0.37500000  0.68000000  0.87500000  1.0
  Zr0+  Zr39  1  0.37500000  0.07000000  0.87500000  1.0
  Zr0+  Zr40  1  0.68000000  0.37500000  0.87500000  1.0
  Zr0+  Zr41  1  0.07000000  0.37500000  0.87500000  1.0
  Zr0+  Zr42  1  0.62500000  0.62500000  0.82000000  1.0
  Zr0+  Zr43  1  0.62500000  0.62500000  0.43000000  1.0
  Zr0+  Zr44  1  0.62500000  0.32000000  0.12500000  1.0
  Zr0+  Zr45  1  0.62500000  0.93000000  0.12500000  1.0
  Zr0+  Zr46  1  0.32000000  0.62500000  0.12500000  1.0
  Zr0+  Zr47  1  0.93000000  0.62500000  0.12500000  1.0
  V0+  V48  1  0.00000000  0.75000000  0.75000000  1.0
  V0+  V49  1  0.75000000  0.00000000  0.75000000  1.0
  V0+  V50  1  0.75000000  0.75000000  0.00000000  1.0
  V0+  V51  1  0.00000000  0.00000000  0.00000000  1.0
  V0+  V52  1  0.00000000  0.25000000  0.25000000  1.0
  V0+  V53  1  0.25000000  0.00000000  0.25000000  1.0
  V0+  V54  1  0.25000000  0.25000000  0.00000000  1.0
  V0+  V55  1  0.75000000  0.50000000  0.25000000  1.0
  V0+  V56  1  0.75000000  0.25000000  0.50000000  1.0
  V0+  V57  1  0.00000000  0.50000000  0.50000000  1.0
  V0+  V58  1  0.25000000  0.50000000  0.75000000  1.0
  V0+  V59  1  0.25000000  0.75000000  0.50000000  1.0
  V0+  V60  1  0.50000000  0.75000000  0.25000000  1.0
  V0+  V61  1  0.50000000  0.00000000  0.50000000  1.0
  V0+  V62  1  0.50000000  0.25000000  0.75000000  1.0
  V0+  V63  1  0.50000000  0.50000000  0.00000000  1.0
  V0+  V64  1  0.79200000  0.95800000  0.95800000  1.0
  V0+  V65  1  0.95800000  0.79200000  0.95800000  1.0
  V0+  V66  1  0.95800000  0.95800000  0.79200000  1.0
  V0+  V67  1  0.79200000  0.79200000  0.79200000  1.0
  V0+  V68  1  0.20800000  0.04200000  0.04200000  1.0
  V0+  V69  1  0.04200000  0.20800000  0.04200000  1.0
  V0+  V70  1  0.04200000  0.04200000  0.20800000  1.0
  V0+  V71  1  0.20800000  0.20800000  0.20800000  1.0
  V0+  V72  1  0.79200000  0.45800000  0.45800000  1.0
  V0+  V73  1  0.95800000  0.29200000  0.45800000  1.0
  V0+  V74  1  0.95800000  0.45800000  0.29200000  1.0
  V0+  V75  1  0.79200000  0.29200000  0.29200000  1.0
  V0+  V76  1  0.20800000  0.54200000  0.54200000  1.0
  V0+  V77  1  0.04200000  0.70800000  0.54200000  1.0
  V0+  V78  1  0.04200000  0.54200000  0.70800000  1.0
  V0+  V79  1  0.20800000  0.70800000  0.70800000  1.0
  V0+  V80  1  0.29200000  0.95800000  0.45800000  1.0
  V0+  V81  1  0.45800000  0.79200000  0.45800000  1.0
  V0+  V82  1  0.45800000  0.95800000  0.29200000  1.0
  V0+  V83  1  0.29200000  0.79200000  0.29200000  1.0
  V0+  V84  1  0.70800000  0.04200000  0.54200000  1.0
  V0+  V85  1  0.54200000  0.20800000  0.54200000  1.0
  V0+  V86  1  0.54200000  0.04200000  0.70800000  1.0
  V0+  V87  1  0.70800000  0.20800000  0.70800000  1.0
  V0+  V88  1  0.29200000  0.45800000  0.95800000  1.0
  V0+  V89  1  0.45800000  0.29200000  0.95800000  1.0
  V0+  V90  1  0.45800000  0.45800000  0.79200000  1.0
  V0+  V91  1  0.29200000  0.29200000  0.79200000  1.0
  V0+  V92  1  0.70800000  0.54200000  0.04200000  1.0
  V0+  V93  1  0.54200000  0.70800000  0.04200000  1.0
  V0+  V94  1  0.54200000  0.54200000  0.20800000  1.0
  V0+  V95  1  0.70800000  0.70800000  0.20800000  1.0
  O0+  O96  1  0.50000000  0.25000000  0.25000000  1.0
  O0+  O97  1  0.25000000  0.50000000  0.25000000  1.0
  O0+  O98  1  0.25000000  0.25000000  0.50000000  1.0
  O0+  O99  1  0.50000000  0.50000000  0.50000000  1.0
  O0+  O100  1  0.50000000  0.75000000  0.75000000  1.0
  O0+  O101  1  0.75000000  0.50000000  0.75000000  1.0
  O0+  O102  1  0.75000000  0.75000000  0.50000000  1.0
  O0+  O103  1  0.25000000  0.00000000  0.75000000  1.0
  O0+  O104  1  0.25000000  0.75000000  0.00000000  1.0
  O0+  O105  1  0.50000000  0.00000000  0.00000000  1.0
  O0+  O106  1  0.75000000  0.00000000  0.25000000  1.0
  O0+  O107  1  0.75000000  0.25000000  0.00000000  1.0
  O0+  O108  1  0.00000000  0.25000000  0.75000000  1.0
  O0+  O109  1  0.00000000  0.50000000  0.00000000  1.0
  O0+  O110  1  0.00000000  0.75000000  0.25000000  1.0
  O0+  O111  1  0.00000000  0.00000000  0.50000000  1.0
