# generated using pymatgen
data_SrSn3Sb4
_symmetry_space_group_name_H-M   'P 1'
_cell_length_a   10.06000000
_cell_length_b   4.36140000
_cell_length_c   22.93400000
_cell_angle_alpha   90.00000000
_cell_angle_beta   90.00000000
_cell_angle_gamma   90.00000000
_symmetry_Int_Tables_number   1
_chemical_formula_structural   SrSn3Sb4
_chemical_formula_sum   'Sr4 Sn12 Sb16'
_cell_volume   1006.24493686
_cell_formula_units_Z   4
loop_
 _symmetry_equiv_pos_site_id
 _symmetry_equiv_pos_as_xyz
  1  'x, y, z'
loop_
 _atom_type_symbol
 _atom_type_oxidation_number
  Sr0+  0.0
  Sn0+  0.0
  Sb0+  0.0
loop_
 _atom_site_type_symbol
 _atom_site_label
 _atom_site_symmetry_multiplicity
 _atom_site_fract_x
 _atom_site_fract_y
 _atom_site_fract_z
 _atom_site_occupancy
  Sr0+  Sr0  1  0.56080000  0.25000000  0.36995000  1.0
  Sr0+  Sr1  1  0.06080000  0.25000000  0.13005000  1.0
  Sr0+  Sr2  1  0.43920000  0.75000000  0.63005000  1.0
  Sr0+  Sr3  1  0.93920000  0.75000000  0.86995000  1.0
  Sn0+  Sn4  1  0.77652000  0.25000000  0.24977000  1.0
  Sn0+  Sn5  1  0.27652000  0.25000000  0.25023000  1.0
  Sn0+  Sn6  1  0.22348000  0.75000000  0.75023000  1.0
  Sn0+  Sn7  1  0.72348000  0.75000000  0.74977000  1.0
  Sn0+  Sn8  1  0.84950000  0.25000000  0.48989000  1.0
  Sn0+  Sn9  1  0.34950000  0.25000000  0.01011000  1.0
  Sn0+  Sn10  1  0.15050000  0.75000000  0.51011000  1.0
  Sn0+  Sn11  1  0.65050000  0.75000000  0.98989000  1.0
  Sn0+  Sn12  1  0.95758000  0.25000000  0.64973000  1.0
  Sn0+  Sn13  1  0.45758000  0.25000000  0.85027000  1.0
  Sn0+  Sn14  1  0.04242000  0.75000000  0.35027000  1.0
  Sn0+  Sn15  1  0.54242000  0.75000000  0.14973000  1.0
  Sb0+  Sb16  1  0.53441000  0.25000000  0.73278000  1.0
  Sb0+  Sb17  1  0.03441000  0.25000000  0.76722000  1.0
  Sb0+  Sb18  1  0.46559000  0.75000000  0.26722000  1.0
  Sb0+  Sb19  1  0.96559000  0.75000000  0.23278000  1.0
  Sb0+  Sb20  1  0.70173000  0.25000000  0.90776000  1.0
  Sb0+  Sb21  1  0.20173000  0.25000000  0.59224000  1.0
  Sb0+  Sb22  1  0.29827000  0.75000000  0.09224000  1.0
  Sb0+  Sb23  1  0.79827000  0.75000000  0.40776000  1.0
  Sb0+  Sb24  1  0.71092000  0.25000000  0.12466000  1.0
  Sb0+  Sb25  1  0.21092000  0.25000000  0.37534000  1.0
  Sb0+  Sb26  1  0.28908000  0.75000000  0.87534000  1.0
  Sb0+  Sb27  1  0.78908000  0.75000000  0.62466000  1.0
  Sb0+  Sb28  1  0.07006000  0.25000000  0.97086000  1.0
  Sb0+  Sb29  1  0.57006000  0.25000000  0.52914000  1.0
  Sb0+  Sb30  1  0.92994000  0.75000000  0.02914000  1.0
  Sb0+  Sb31  1  0.42994000  0.75000000  0.47086000  1.0
