# generated using pymatgen
data_Sr(NiGe)2
_symmetry_space_group_name_H-M   'P 1'
_cell_length_a   4.19680000
_cell_length_b   4.19680000
_cell_length_c   10.35950000
_cell_angle_alpha   90.00000000
_cell_angle_beta   90.00000000
_cell_angle_gamma   90.00000000
_symmetry_Int_Tables_number   1
_chemical_formula_structural   Sr(NiGe)2
_chemical_formula_sum   'Sr2 Ni4 Ge4'
_cell_volume   182.46322272
_cell_formula_units_Z   2
loop_
 _symmetry_equiv_pos_site_id
 _symmetry_equiv_pos_as_xyz
  1  'x, y, z'
loop_
 _atom_type_symbol
 _atom_type_oxidation_number
  Sr0+  0.0
  Ni0+  0.0
  Ge0+  0.0
loop_
 _atom_site_type_symbol
 _atom_site_label
 _atom_site_symmetry_multiplicity
 _atom_site_fract_x
 _atom_site_fract_y
 _atom_site_fract_z
 _atom_site_occupancy
  Sr0+  Sr0  1  0.00000000  0.00000000  0.00000000  1.0
  Sr0+  Sr1  1  0.50000000  0.50000000  0.50000000  1.0
  Ni0+  Ni2  1  0.50000000  0.00000000  0.75000000  1.0
  Ni0+  Ni3  1  0.00000000  0.50000000  0.75000000  1.0
  Ni0+  Ni4  1  0.50000000  0.00000000  0.25000000  1.0
  Ni0+  Ni5  1  0.00000000  0.50000000  0.25000000  1.0
  Ge0+  Ge6  1  0.00000000  0.00000000  0.63993000  1.0
  Ge0+  Ge7  1  0.00000000  0.00000000  0.36007000  1.0
  Ge0+  Ge8  1  0.50000000  0.50000000  0.13993000  1.0
  Ge0+  Ge9  1  0.50000000  0.50000000  0.86007000  1.0
