# generated using pymatgen
data_La(FeP3)4
_symmetry_space_group_name_H-M   'P 1'
_cell_length_a   7.72400000
_cell_length_b   7.72400000
_cell_length_c   7.72400000
_cell_angle_alpha   90.00000000
_cell_angle_beta   90.00000000
_cell_angle_gamma   90.00000000
_symmetry_Int_Tables_number   1
_chemical_formula_structural   La(FeP3)4
_chemical_formula_sum   'La2 Fe8 P24'
_cell_volume   460.81519942
_cell_formula_units_Z   2
loop_
 _symmetry_equiv_pos_site_id
 _symmetry_equiv_pos_as_xyz
  1  'x, y, z'
loop_
 _atom_type_symbol
 _atom_type_oxidation_number
  La0+  0.0
  Fe0+  0.0
  P0+  0.0
loop_
 _atom_site_type_symbol
 _atom_site_label
 _atom_site_symmetry_multiplicity
 _atom_site_fract_x
 _atom_site_fract_y
 _atom_site_fract_z
 _atom_site_occupancy
  La0+  La0  1  0.00000000  0.00000000  0.00000000  1.0
  La0+  La1  1  0.50000000  0.50000000  0.50000000  1.0
  Fe0+  Fe2  1  0.75000000  0.25000000  0.25000000  1.0
  Fe0+  Fe3  1  0.25000000  0.25000000  0.75000000  1.0
  Fe0+  Fe4  1  0.25000000  0.75000000  0.25000000  1.0
  Fe0+  Fe5  1  0.75000000  0.75000000  0.75000000  1.0
  Fe0+  Fe6  1  0.25000000  0.75000000  0.75000000  1.0
  Fe0+  Fe7  1  0.75000000  0.75000000  0.25000000  1.0
  Fe0+  Fe8  1  0.75000000  0.25000000  0.75000000  1.0
  Fe0+  Fe9  1  0.25000000  0.25000000  0.25000000  1.0
  P0+  P10  1  0.84570000  0.00000000  0.35270000  1.0
  P0+  P11  1  0.15430000  0.00000000  0.64730000  1.0
  P0+  P12  1  0.15430000  0.00000000  0.35270000  1.0
  P0+  P13  1  0.84570000  0.00000000  0.64730000  1.0
  P0+  P14  1  0.35270000  0.84570000  0.00000000  1.0
  P0+  P15  1  0.64730000  0.15430000  0.00000000  1.0
  P0+  P16  1  0.35270000  0.15430000  0.00000000  1.0
  P0+  P17  1  0.64730000  0.84570000  0.00000000  1.0
  P0+  P18  1  0.00000000  0.35270000  0.84570000  1.0
  P0+  P19  1  0.00000000  0.64730000  0.15430000  1.0
  P0+  P20  1  0.00000000  0.35270000  0.15430000  1.0
  P0+  P21  1  0.00000000  0.64730000  0.84570000  1.0
  P0+  P22  1  0.34570000  0.50000000  0.85270000  1.0
  P0+  P23  1  0.65430000  0.50000000  0.14730000  1.0
  P0+  P24  1  0.65430000  0.50000000  0.85270000  1.0
  P0+  P25  1  0.34570000  0.50000000  0.14730000  1.0
  P0+  P26  1  0.85270000  0.34570000  0.50000000  1.0
  P0+  P27  1  0.14730000  0.65430000  0.50000000  1.0
  P0+  P28  1  0.85270000  0.65430000  0.50000000  1.0
  P0+  P29  1  0.14730000  0.34570000  0.50000000  1.0
  P0+  P30  1  0.50000000  0.85270000  0.34570000  1.0
  P0+  P31  1  0.50000000  0.14730000  0.65430000  1.0
  P0+  P32  1  0.50000000  0.85270000  0.65430000  1.0
  P0+  P33  1  0.50000000  0.14730000  0.34570000  1.0
