# generated using pymatgen
data_SrGe3Pd
_symmetry_space_group_name_H-M   'P 1'
_cell_length_a   4.46230000
_cell_length_b   4.46230000
_cell_length_c   10.27370000
_cell_angle_alpha   90.00000000
_cell_angle_beta   90.00000000
_cell_angle_gamma   90.00000000
_symmetry_Int_Tables_number   1
_chemical_formula_structural   SrGe3Pd
_chemical_formula_sum   'Sr2 Ge6 Pd2'
_cell_volume   204.57116050
_cell_formula_units_Z   2
loop_
 _symmetry_equiv_pos_site_id
 _symmetry_equiv_pos_as_xyz
  1  'x, y, z'
loop_
 _atom_type_symbol
 _atom_type_oxidation_number
  Sr0+  0.0
  Ge0+  0.0
  Pd0+  0.0
loop_
 _atom_site_type_symbol
 _atom_site_label
 _atom_site_symmetry_multiplicity
 _atom_site_fract_x
 _atom_site_fract_y
 _atom_site_fract_z
 _atom_site_occupancy
  Sr0+  Sr0  1  0.00000000  0.00000000  0.00000000  1.0
  Sr0+  Sr1  1  0.50000000  0.50000000  0.50000000  1.0
  Ge0+  Ge2  1  0.50000000  0.00000000  0.25320000  1.0
  Ge0+  Ge3  1  0.00000000  0.50000000  0.25320000  1.0
  Ge0+  Ge4  1  0.00000000  0.50000000  0.75320000  1.0
  Ge0+  Ge5  1  0.50000000  0.00000000  0.75320000  1.0
  Ge0+  Ge6  1  0.00000000  0.00000000  0.39940000  1.0
  Ge0+  Ge7  1  0.50000000  0.50000000  0.89940000  1.0
  Pd0+  Pd8  1  0.00000000  0.00000000  0.64190000  1.0
  Pd0+  Pd9  1  0.50000000  0.50000000  0.14190000  1.0
