# generated using pymatgen
data_Ba2Bi3
_symmetry_space_group_name_H-M   'P 1'
_cell_length_a   4.81860000
_cell_length_b   7.98900000
_cell_length_c   9.98200000
_cell_angle_alpha   90.00000000
_cell_angle_beta   90.00000000
_cell_angle_gamma   90.00000000
_symmetry_Int_Tables_number   1
_chemical_formula_structural   Ba2Bi3
_chemical_formula_sum   'Ba4 Bi6'
_cell_volume   384.26502968
_cell_formula_units_Z   2
loop_
 _symmetry_equiv_pos_site_id
 _symmetry_equiv_pos_as_xyz
  1  'x, y, z'
loop_
 _atom_type_symbol
 _atom_type_oxidation_number
  Ba0+  0.0
  Bi0+  0.0
loop_
 _atom_site_type_symbol
 _atom_site_label
 _atom_site_symmetry_multiplicity
 _atom_site_fract_x
 _atom_site_fract_y
 _atom_site_fract_z
 _atom_site_occupancy
  Ba0+  Ba0  1  0.50000000  0.00000000  0.27550000  1.0
  Ba0+  Ba1  1  0.50000000  0.00000000  0.72450000  1.0
  Ba0+  Ba2  1  0.00000000  0.50000000  0.77550000  1.0
  Ba0+  Ba3  1  0.00000000  0.50000000  0.22450000  1.0
  Bi0+  Bi4  1  0.00000000  0.00000000  0.00000000  1.0
  Bi0+  Bi5  1  0.50000000  0.50000000  0.50000000  1.0
  Bi0+  Bi6  1  0.50000000  0.70320000  0.00000000  1.0
  Bi0+  Bi7  1  0.50000000  0.29680000  0.00000000  1.0
  Bi0+  Bi8  1  0.00000000  0.20320000  0.50000000  1.0
  Bi0+  Bi9  1  0.00000000  0.79680000  0.50000000  1.0
