# generated using pymatgen
data_SbPdSe
_symmetry_space_group_name_H-M   'P 1'
_cell_length_a   6.31810000
_cell_length_b   6.31810000
_cell_length_c   6.31810000
_cell_angle_alpha   90.00000000
_cell_angle_beta   90.00000000
_cell_angle_gamma   90.00000000
_symmetry_Int_Tables_number   1
_chemical_formula_structural   SbPdSe
_chemical_formula_sum   'Sb4 Pd4 Se4'
_cell_volume   252.20836476
_cell_formula_units_Z   4
loop_
 _symmetry_equiv_pos_site_id
 _symmetry_equiv_pos_as_xyz
  1  'x, y, z'
loop_
 _atom_type_symbol
 _atom_type_oxidation_number
  Sb1.5-  -1.5
  Pd3+  3.0
  Se1.5-  -1.5
loop_
 _atom_site_type_symbol
 _atom_site_label
 _atom_site_symmetry_multiplicity
 _atom_site_fract_x
 _atom_site_fract_y
 _atom_site_fract_z
 _atom_site_occupancy
  Sb1.5-  Sb0  1  0.37323000  0.87323000  0.62677000  1.0
  Sb1.5-  Sb1  1  0.87323000  0.62677000  0.37323000  1.0
  Sb1.5-  Sb2  1  0.62677000  0.37323000  0.87323000  1.0
  Sb1.5-  Sb3  1  0.12677000  0.12677000  0.12677000  1.0
  Pd3+  Pd4  1  0.25390000  0.74610000  0.24610000  1.0
  Pd3+  Pd5  1  0.75390000  0.75390000  0.75390000  1.0
  Pd3+  Pd6  1  0.24610000  0.25390000  0.74610000  1.0
  Pd3+  Pd7  1  0.74610000  0.24610000  0.25390000  1.0
  Se1.5-  Se8  1  0.36768000  0.36768000  0.36768000  1.0
  Se1.5-  Se9  1  0.63232000  0.86768000  0.13232000  1.0
  Se1.5-  Se10  1  0.86768000  0.13232000  0.63232000  1.0
  Se1.5-  Se11  1  0.13232000  0.63232000  0.86768000  1.0
