# generated using pymatgen
data_BI3
_symmetry_space_group_name_H-M   'P 1'
_cell_length_a   6.99660000
_cell_length_b   6.99660000
_cell_length_c   7.26150000
_cell_angle_alpha   90.00000000
_cell_angle_beta   90.00000000
_cell_angle_gamma   120.00000000
_symmetry_Int_Tables_number   1
_chemical_formula_structural   BI3
_chemical_formula_sum   'B2 I6'
_cell_volume   307.84426328
_cell_formula_units_Z   2
loop_
 _symmetry_equiv_pos_site_id
 _symmetry_equiv_pos_as_xyz
  1  'x, y, z'
loop_
 _atom_type_symbol
 _atom_type_oxidation_number
  B3+  3.0
  I-  -1.0
loop_
 _atom_site_type_symbol
 _atom_site_label
 _atom_site_symmetry_multiplicity
 _atom_site_fract_x
 _atom_site_fract_y
 _atom_site_fract_z
 _atom_site_occupancy
  B3+  B0  1  0.66666667  0.33333333  0.25000000  1.0
  B3+  B1  1  0.33333333  0.66666667  0.75000000  1.0
  I-  I2  1  0.96175000  0.64502000  0.25000000  1.0
  I-  I3  1  0.68327000  0.03825000  0.25000000  1.0
  I-  I4  1  0.35498000  0.31673000  0.25000000  1.0
  I-  I5  1  0.03825000  0.35498000  0.75000000  1.0
  I-  I6  1  0.31673000  0.96175000  0.75000000  1.0
  I-  I7  1  0.64502000  0.68327000  0.75000000  1.0
