# generated using pymatgen
data_BaSi3Pt
_symmetry_space_group_name_H-M   'P 1'
_cell_length_a   4.40790000
_cell_length_b   4.40790000
_cell_length_c   10.01700000
_cell_angle_alpha   90.00000000
_cell_angle_beta   90.00000000
_cell_angle_gamma   90.00000000
_symmetry_Int_Tables_number   1
_chemical_formula_structural   BaSi3Pt
_chemical_formula_sum   'Ba2 Si6 Pt2'
_cell_volume   194.62612700
_cell_formula_units_Z   2
loop_
 _symmetry_equiv_pos_site_id
 _symmetry_equiv_pos_as_xyz
  1  'x, y, z'
loop_
 _atom_type_symbol
 _atom_type_oxidation_number
  Ba0+  0.0
  Si0+  0.0
  Pt0+  0.0
loop_
 _atom_site_type_symbol
 _atom_site_label
 _atom_site_symmetry_multiplicity
 _atom_site_fract_x
 _atom_site_fract_y
 _atom_site_fract_z
 _atom_site_occupancy
  Ba0+  Ba0  1  0.00000000  0.00000000  0.59910000  1.0
  Ba0+  Ba1  1  0.50000000  0.50000000  0.09910000  1.0
  Si0+  Si2  1  0.00000000  0.00000000  0.00000000  1.0
  Si0+  Si3  1  0.50000000  0.50000000  0.50000000  1.0
  Si0+  Si4  1  0.50000000  0.00000000  0.35600000  1.0
  Si0+  Si5  1  0.00000000  0.50000000  0.35600000  1.0
  Si0+  Si6  1  0.00000000  0.50000000  0.85600000  1.0
  Si0+  Si7  1  0.50000000  0.00000000  0.85600000  1.0
  Pt0+  Pt8  1  0.00000000  0.00000000  0.24770000  1.0
  Pt0+  Pt9  1  0.50000000  0.50000000  0.74770000  1.0
