# generated using pymatgen
data_CaSi3Pt
_symmetry_space_group_name_H-M   'P 1'
_cell_length_a   4.20000000
_cell_length_b   4.20000000
_cell_length_c   9.75100000
_cell_angle_alpha   90.00000000
_cell_angle_beta   90.00000000
_cell_angle_gamma   90.00000000
_symmetry_Int_Tables_number   1
_chemical_formula_structural   CaSi3Pt
_chemical_formula_sum   'Ca2 Si6 Pt2'
_cell_volume   172.00764000
_cell_formula_units_Z   2
loop_
 _symmetry_equiv_pos_site_id
 _symmetry_equiv_pos_as_xyz
  1  'x, y, z'
loop_
 _atom_type_symbol
 _atom_type_oxidation_number
  Ca0+  0.0
  Si0+  0.0
  Pt0+  0.0
loop_
 _atom_site_type_symbol
 _atom_site_label
 _atom_site_symmetry_multiplicity
 _atom_site_fract_x
 _atom_site_fract_y
 _atom_site_fract_z
 _atom_site_occupancy
  Ca0+  Ca0  1  0.00000000  0.00000000  0.00000000  1.0
  Ca0+  Ca1  1  0.50000000  0.50000000  0.50000000  1.0
  Si0+  Si2  1  0.00000000  0.00000000  0.40260000  1.0
  Si0+  Si3  1  0.50000000  0.50000000  0.90260000  1.0
  Si0+  Si4  1  0.50000000  0.00000000  0.26210000  1.0
  Si0+  Si5  1  0.00000000  0.50000000  0.26210000  1.0
  Si0+  Si6  1  0.00000000  0.50000000  0.76210000  1.0
  Si0+  Si7  1  0.50000000  0.00000000  0.76210000  1.0
  Pt0+  Pt8  1  0.00000000  0.00000000  0.64440000  1.0
  Pt0+  Pt9  1  0.50000000  0.50000000  0.14440000  1.0
