# generated using pymatgen
data_Sr(AsPt)2
_symmetry_space_group_name_H-M   'P 1'
_cell_length_a   4.50300000
_cell_length_b   4.50300000
_cell_length_c   9.86900000
_cell_angle_alpha   90.00000000
_cell_angle_beta   90.00000000
_cell_angle_gamma   90.00000000
_symmetry_Int_Tables_number   1
_chemical_formula_structural   Sr(AsPt)2
_chemical_formula_sum   'Sr2 As4 Pt4'
_cell_volume   200.11380182
_cell_formula_units_Z   2
loop_
 _symmetry_equiv_pos_site_id
 _symmetry_equiv_pos_as_xyz
  1  'x, y, z'
loop_
 _atom_type_symbol
 _atom_type_oxidation_number
  Sr2+  2.0
  As3-  -3.0
  Pt2+  2.0
loop_
 _atom_site_type_symbol
 _atom_site_label
 _atom_site_symmetry_multiplicity
 _atom_site_fract_x
 _atom_site_fract_y
 _atom_site_fract_z
 _atom_site_occupancy
  Sr2+  Sr0  1  0.75000000  0.75000000  0.25310000  1.0
  Sr2+  Sr1  1  0.25000000  0.25000000  0.74690000  1.0
  As3-  As2  1  0.75000000  0.75000000  0.87370000  1.0
  As3-  As3  1  0.25000000  0.25000000  0.12630000  1.0
  As3-  As4  1  0.25000000  0.75000000  0.50000000  1.0
  As3-  As5  1  0.75000000  0.25000000  0.50000000  1.0
  Pt2+  Pt6  1  0.25000000  0.75000000  0.00000000  1.0
  Pt2+  Pt7  1  0.75000000  0.25000000  0.00000000  1.0
  Pt2+  Pt8  1  0.75000000  0.75000000  0.61830000  1.0
  Pt2+  Pt9  1  0.25000000  0.25000000  0.38170000  1.0
