# generated using pymatgen
data_NaAlSi
_symmetry_space_group_name_H-M   'P 1'
_cell_length_a   4.13300000
_cell_length_b   4.13300000
_cell_length_c   7.36800000
_cell_angle_alpha   90.00000000
_cell_angle_beta   90.00000000
_cell_angle_gamma   90.00000000
_symmetry_Int_Tables_number   1
_chemical_formula_structural   NaAlSi
_chemical_formula_sum   'Na2 Al2 Si2'
_cell_volume   125.85788455
_cell_formula_units_Z   2
loop_
 _symmetry_equiv_pos_site_id
 _symmetry_equiv_pos_as_xyz
  1  'x, y, z'
loop_
 _atom_type_symbol
 _atom_type_oxidation_number
  Na+  1.0
  Al3+  3.0
  Si4-  -4.0
loop_
 _atom_site_type_symbol
 _atom_site_label
 _atom_site_symmetry_multiplicity
 _atom_site_fract_x
 _atom_site_fract_y
 _atom_site_fract_z
 _atom_site_occupancy
  Na+  Na0  1  0.75000000  0.75000000  0.37800000  1.0
  Na+  Na1  1  0.25000000  0.25000000  0.62200000  1.0
  Al3+  Al2  1  0.75000000  0.25000000  0.00000000  1.0
  Al3+  Al3  1  0.25000000  0.75000000  0.00000000  1.0
  Si4-  Si4  1  0.75000000  0.75000000  0.77700000  1.0
  Si4-  Si5  1  0.25000000  0.25000000  0.22300000  1.0
