# generated using pymatgen
data_RhC
_symmetry_space_group_name_H-M   'P 1'
_cell_length_a   4.36000000
_cell_length_b   4.36000000
_cell_length_c   4.36000000
_cell_angle_alpha   90.00000000
_cell_angle_beta   90.00000000
_cell_angle_gamma   90.00000000
_symmetry_Int_Tables_number   1
_chemical_formula_structural   RhC
_chemical_formula_sum   'Rh4 C4'
_cell_volume   82.88185600
_cell_formula_units_Z   4
loop_
 _symmetry_equiv_pos_site_id
 _symmetry_equiv_pos_as_xyz
  1  'x, y, z'
loop_
 _atom_type_symbol
 _atom_type_oxidation_number
  Rh0+  0.0
  C0+  0.0
loop_
 _atom_site_type_symbol
 _atom_site_label
 _atom_site_symmetry_multiplicity
 _atom_site_fract_x
 _atom_site_fract_y
 _atom_site_fract_z
 _atom_site_occupancy
  Rh0+  Rh0  1  0.00000000  0.00000000  0.00000000  1.0
  Rh0+  Rh1  1  0.00000000  0.50000000  0.50000000  1.0
  Rh0+  Rh2  1  0.50000000  0.00000000  0.50000000  1.0
  Rh0+  Rh3  1  0.50000000  0.50000000  0.00000000  1.0
  C0+  C4  1  0.50000000  0.50000000  0.50000000  1.0
  C0+  C5  1  0.50000000  0.00000000  0.00000000  1.0
  C0+  C6  1  0.00000000  0.50000000  0.00000000  1.0
  C0+  C7  1  0.00000000  0.00000000  0.50000000  1.0
