# generated using pymatgen
data_NbSiAs
_symmetry_space_group_name_H-M   'P 1'
_cell_length_a   3.49140000
_cell_length_b   3.49140000
_cell_length_c   7.90050000
_cell_angle_alpha   90.00000000
_cell_angle_beta   90.00000000
_cell_angle_gamma   90.00000000
_symmetry_Int_Tables_number   1
_chemical_formula_structural   NbSiAs
_chemical_formula_sum   'Nb2 Si2 As2'
_cell_volume   96.30609922
_cell_formula_units_Z   2
loop_
 _symmetry_equiv_pos_site_id
 _symmetry_equiv_pos_as_xyz
  1  'x, y, z'
loop_
 _atom_type_symbol
 _atom_type_oxidation_number
  Nb0+  0.0
  Si0+  0.0
  As0+  0.0
loop_
 _atom_site_type_symbol
 _atom_site_label
 _atom_site_symmetry_multiplicity
 _atom_site_fract_x
 _atom_site_fract_y
 _atom_site_fract_z
 _atom_site_occupancy
  Nb0+  Nb0  1  0.75000000  0.75000000  0.74500000  1.0
  Nb0+  Nb1  1  0.25000000  0.25000000  0.25500000  1.0
  Si0+  Si2  1  0.75000000  0.25000000  0.00000000  1.0
  Si0+  Si3  1  0.25000000  0.75000000  0.00000000  1.0
  As0+  As4  1  0.75000000  0.75000000  0.38540000  1.0
  As0+  As5  1  0.25000000  0.25000000  0.61460000  1.0
