# generated using pymatgen
data_BMo
_symmetry_space_group_name_H-M   'P 1'
_cell_length_a   3.14820000
_cell_length_b   8.48580000
_cell_length_c   3.07780000
_cell_angle_alpha   90.00000000
_cell_angle_beta   90.00000000
_cell_angle_gamma   90.00000000
_symmetry_Int_Tables_number   1
_chemical_formula_structural   BMo
_chemical_formula_sum   'B4 Mo4'
_cell_volume   82.22341333
_cell_formula_units_Z   4
loop_
 _symmetry_equiv_pos_site_id
 _symmetry_equiv_pos_as_xyz
  1  'x, y, z'
loop_
 _atom_type_symbol
 _atom_type_oxidation_number
  B0+  0.0
  Mo0+  0.0
loop_
 _atom_site_type_symbol
 _atom_site_label
 _atom_site_symmetry_multiplicity
 _atom_site_fract_x
 _atom_site_fract_y
 _atom_site_fract_z
 _atom_site_occupancy
  B0+  B0  1  0.00000000  0.43500000  0.25000000  1.0
  B0+  B1  1  0.00000000  0.56500000  0.75000000  1.0
  B0+  B2  1  0.50000000  0.93500000  0.25000000  1.0
  B0+  B3  1  0.50000000  0.06500000  0.75000000  1.0
  Mo0+  Mo4  1  0.00000000  0.14500000  0.25000000  1.0
  Mo0+  Mo5  1  0.00000000  0.85500000  0.75000000  1.0
  Mo0+  Mo6  1  0.50000000  0.64500000  0.25000000  1.0
  Mo0+  Mo7  1  0.50000000  0.35500000  0.75000000  1.0
