# generated using pymatgen
data_Re7B3
_symmetry_space_group_name_H-M   'P 1'
_cell_length_a   7.50430000
_cell_length_b   7.50430000
_cell_length_c   4.88110000
_cell_angle_alpha   90.00000000
_cell_angle_beta   90.00000000
_cell_angle_gamma   120.00000000
_symmetry_Int_Tables_number   1
_chemical_formula_structural   Re7B3
_chemical_formula_sum   'Re14 B6'
_cell_volume   238.05028842
_cell_formula_units_Z   2
loop_
 _symmetry_equiv_pos_site_id
 _symmetry_equiv_pos_as_xyz
  1  'x, y, z'
loop_
 _atom_type_symbol
 _atom_type_oxidation_number
  Re0+  0.0
  B0+  0.0
loop_
 _atom_site_type_symbol
 _atom_site_label
 _atom_site_symmetry_multiplicity
 _atom_site_fract_x
 _atom_site_fract_y
 _atom_site_fract_z
 _atom_site_occupancy
  Re0+  Re0  1  0.66666667  0.33333333  0.56800000  1.0
  Re0+  Re1  1  0.33333333  0.66666667  0.06800000  1.0
  Re0+  Re2  1  0.87800000  0.75600000  0.75000000  1.0
  Re0+  Re3  1  0.24400000  0.12200000  0.75000000  1.0
  Re0+  Re4  1  0.87800000  0.12200000  0.75000000  1.0
  Re0+  Re5  1  0.12200000  0.24400000  0.25000000  1.0
  Re0+  Re6  1  0.75600000  0.87800000  0.25000000  1.0
  Re0+  Re7  1  0.12200000  0.87800000  0.25000000  1.0
  Re0+  Re8  1  0.45600000  0.91200000  0.56800000  1.0
  Re0+  Re9  1  0.08800000  0.54400000  0.56800000  1.0
  Re0+  Re10  1  0.45600000  0.54400000  0.56800000  1.0
  Re0+  Re11  1  0.54400000  0.08800000  0.06800000  1.0
  Re0+  Re12  1  0.91200000  0.45600000  0.06800000  1.0
  Re0+  Re13  1  0.54400000  0.45600000  0.06800000  1.0
  B0+  B14  1  0.18700000  0.37400000  0.83000000  1.0
  B0+  B15  1  0.62600000  0.81300000  0.83000000  1.0
  B0+  B16  1  0.18700000  0.81300000  0.83000000  1.0
  B0+  B17  1  0.81300000  0.62600000  0.33000000  1.0
  B0+  B18  1  0.37400000  0.18700000  0.33000000  1.0
  B0+  B19  1  0.81300000  0.18700000  0.33000000  1.0
