# generated using pymatgen
data_Nb2PdS5
_symmetry_space_group_name_H-M   'P 1'
_cell_length_a   12.13400000
_cell_length_b   3.27700000
_cell_length_c   15.02300000
_cell_angle_alpha   90.00000000
_cell_angle_beta   103.23000000
_cell_angle_gamma   90.00000000
_symmetry_Int_Tables_number   1
_chemical_formula_structural   Nb2PdS5
_chemical_formula_sum   'Nb8 Pd4 S20'
_cell_volume   581.50687744
_cell_formula_units_Z   4
loop_
 _symmetry_equiv_pos_site_id
 _symmetry_equiv_pos_as_xyz
  1  'x, y, z'
loop_
 _atom_type_symbol
 _atom_type_oxidation_number
  Nb5+  5.0
  Pd0+  0.0
  S2-  -2.0
loop_
 _atom_site_type_symbol
 _atom_site_label
 _atom_site_symmetry_multiplicity
 _atom_site_fract_x
 _atom_site_fract_y
 _atom_site_fract_z
 _atom_site_occupancy
  Nb5+  Nb0  1  0.92410000  0.50000000  0.82100000  1.0
  Nb5+  Nb1  1  0.07590000  0.50000000  0.17900000  1.0
  Nb5+  Nb2  1  0.42410000  0.00000000  0.82100000  1.0
  Nb5+  Nb3  1  0.57590000  0.00000000  0.17900000  1.0
  Nb5+  Nb4  1  0.84720000  0.00000000  0.62170000  1.0
  Nb5+  Nb5  1  0.15280000  0.00000000  0.37830000  1.0
  Nb5+  Nb6  1  0.34720000  0.50000000  0.62170000  1.0
  Nb5+  Nb7  1  0.65280000  0.50000000  0.37830000  1.0
  Pd0+  Pd8  1  0.00000000  0.00000000  0.00000000  1.0
  Pd0+  Pd9  1  0.50000000  0.50000000  0.00000000  1.0
  Pd0+  Pd10  1  0.00000000  0.00000000  0.50000000  1.0
  Pd0+  Pd11  1  0.50000000  0.50000000  0.50000000  1.0
  S2-  S12  1  0.64970000  0.00000000  0.51100000  1.0
  S2-  S13  1  0.35030000  0.00000000  0.48900000  1.0
  S2-  S14  1  0.14970000  0.50000000  0.51100000  1.0
  S2-  S15  1  0.85030000  0.50000000  0.48900000  1.0
  S2-  S16  1  0.74630000  0.50000000  0.70500000  1.0
  S2-  S17  1  0.25370000  0.50000000  0.29500000  1.0
  S2-  S18  1  0.24630000  0.00000000  0.70500000  1.0
  S2-  S19  1  0.75370000  0.00000000  0.29500000  1.0
  S2-  S20  1  0.82470000  0.00000000  0.90230000  1.0
  S2-  S21  1  0.17530000  0.00000000  0.09770000  1.0
  S2-  S22  1  0.32470000  0.50000000  0.90230000  1.0
  S2-  S23  1  0.67530000  0.50000000  0.09770000  1.0
  S2-  S24  1  0.57700000  0.50000000  0.86790000  1.0
  S2-  S25  1  0.42300000  0.50000000  0.13210000  1.0
  S2-  S26  1  0.07700000  0.00000000  0.86790000  1.0
  S2-  S27  1  0.92300000  0.00000000  0.13210000  1.0
  S2-  S28  1  0.50960000  0.00000000  0.67660000  1.0
  S2-  S29  1  0.49040000  0.00000000  0.32340000  1.0
  S2-  S30  1  0.00960000  0.50000000  0.67660000  1.0
  S2-  S31  1  0.99040000  0.50000000  0.32340000  1.0
