# generated using pymatgen
data_Ba3(Ge4Ir)4
_symmetry_space_group_name_H-M   'P 1'
_cell_length_a   6.54420000
_cell_length_b   6.54420000
_cell_length_c   22.28330000
_cell_angle_alpha   90.00000000
_cell_angle_beta   90.00000000
_cell_angle_gamma   90.00000000
_symmetry_Int_Tables_number   1
_chemical_formula_structural   Ba3(Ge4Ir)4
_chemical_formula_sum   'Ba6 Ge32 Ir8'
_cell_volume   954.31694273
_cell_formula_units_Z   2
loop_
 _symmetry_equiv_pos_site_id
 _symmetry_equiv_pos_as_xyz
  1  'x, y, z'
loop_
 _atom_type_symbol
 _atom_type_oxidation_number
  Ba0+  0.0
  Ge0+  0.0
  Ir0+  0.0
loop_
 _atom_site_type_symbol
 _atom_site_label
 _atom_site_symmetry_multiplicity
 _atom_site_fract_x
 _atom_site_fract_y
 _atom_site_fract_z
 _atom_site_occupancy
  Ba0+  Ba0  1  0.00000000  0.00000000  0.00000000  1.0
  Ba0+  Ba1  1  0.50000000  0.50000000  0.50000000  1.0
  Ba0+  Ba2  1  0.50000000  0.00000000  0.75000000  1.0
  Ba0+  Ba3  1  0.00000000  0.50000000  0.75000000  1.0
  Ba0+  Ba4  1  0.50000000  0.00000000  0.25000000  1.0
  Ba0+  Ba5  1  0.00000000  0.50000000  0.25000000  1.0
  Ge0+  Ge6  1  0.24240000  0.24240000  0.87090000  1.0
  Ge0+  Ge7  1  0.75760000  0.75760000  0.87090000  1.0
  Ge0+  Ge8  1  0.75760000  0.24240000  0.87090000  1.0
  Ge0+  Ge9  1  0.24240000  0.75760000  0.87090000  1.0
  Ge0+  Ge10  1  0.75760000  0.75760000  0.12910000  1.0
  Ge0+  Ge11  1  0.24240000  0.24240000  0.12910000  1.0
  Ge0+  Ge12  1  0.24240000  0.75760000  0.12910000  1.0
  Ge0+  Ge13  1  0.75760000  0.24240000  0.12910000  1.0
  Ge0+  Ge14  1  0.74240000  0.74240000  0.37090000  1.0
  Ge0+  Ge15  1  0.25760000  0.25760000  0.37090000  1.0
  Ge0+  Ge16  1  0.25760000  0.74240000  0.37090000  1.0
  Ge0+  Ge17  1  0.74240000  0.25760000  0.37090000  1.0
  Ge0+  Ge18  1  0.25760000  0.25760000  0.62910000  1.0
  Ge0+  Ge19  1  0.74240000  0.74240000  0.62910000  1.0
  Ge0+  Ge20  1  0.74240000  0.25760000  0.62910000  1.0
  Ge0+  Ge21  1  0.25760000  0.74240000  0.62910000  1.0
  Ge0+  Ge22  1  0.50000000  0.23000000  0.00000000  1.0
  Ge0+  Ge23  1  0.50000000  0.77000000  0.00000000  1.0
  Ge0+  Ge24  1  0.77000000  0.50000000  0.00000000  1.0
  Ge0+  Ge25  1  0.23000000  0.50000000  0.00000000  1.0
  Ge0+  Ge26  1  0.00000000  0.73000000  0.50000000  1.0
  Ge0+  Ge27  1  0.00000000  0.27000000  0.50000000  1.0
  Ge0+  Ge28  1  0.27000000  0.00000000  0.50000000  1.0
  Ge0+  Ge29  1  0.73000000  0.00000000  0.50000000  1.0
  Ge0+  Ge30  1  0.00000000  0.00000000  0.80270000  1.0
  Ge0+  Ge31  1  0.00000000  0.00000000  0.19730000  1.0
  Ge0+  Ge32  1  0.50000000  0.50000000  0.30270000  1.0
  Ge0+  Ge33  1  0.50000000  0.50000000  0.69730000  1.0
  Ge0+  Ge34  1  0.00000000  0.00000000  0.69020000  1.0
  Ge0+  Ge35  1  0.00000000  0.00000000  0.30980000  1.0
  Ge0+  Ge36  1  0.50000000  0.50000000  0.19020000  1.0
  Ge0+  Ge37  1  0.50000000  0.50000000  0.80980000  1.0
  Ir0+  Ir38  1  0.50000000  0.00000000  0.91030000  1.0
  Ir0+  Ir39  1  0.00000000  0.50000000  0.91030000  1.0
  Ir0+  Ir40  1  0.50000000  0.00000000  0.08970000  1.0
  Ir0+  Ir41  1  0.00000000  0.50000000  0.08970000  1.0
  Ir0+  Ir42  1  0.00000000  0.50000000  0.41030000  1.0
  Ir0+  Ir43  1  0.50000000  0.00000000  0.41030000  1.0
  Ir0+  Ir44  1  0.00000000  0.50000000  0.58970000  1.0
  Ir0+  Ir45  1  0.50000000  0.00000000  0.58970000  1.0
