# generated using pymatgen
data_SrSi3Au
_symmetry_space_group_name_H-M   'P 1'
_cell_length_a   4.40903000
_cell_length_b   4.40903000
_cell_length_c   9.94755000
_cell_angle_alpha   90.00000000
_cell_angle_beta   90.00000000
_cell_angle_gamma   90.00000000
_symmetry_Int_Tables_number   1
_chemical_formula_structural   SrSi3Au
_chemical_formula_sum   'Sr2 Si6 Au2'
_cell_volume   193.37585125
_cell_formula_units_Z   2
loop_
 _symmetry_equiv_pos_site_id
 _symmetry_equiv_pos_as_xyz
  1  'x, y, z'
loop_
 _atom_type_symbol
 _atom_type_oxidation_number
  Sr0+  0.0
  Si0+  0.0
  Au0+  0.0
loop_
 _atom_site_type_symbol
 _atom_site_label
 _atom_site_symmetry_multiplicity
 _atom_site_fract_x
 _atom_site_fract_y
 _atom_site_fract_z
 _atom_site_occupancy
  Sr0+  Sr0  1  0.00000000  0.00000000  0.00000000  1.0
  Sr0+  Sr1  1  0.50000000  0.50000000  0.50000000  1.0
  Si0+  Si2  1  0.00000000  0.00000000  0.37840000  1.0
  Si0+  Si3  1  0.50000000  0.50000000  0.87840000  1.0
  Si0+  Si4  1  0.50000000  0.00000000  0.25750000  1.0
  Si0+  Si5  1  0.00000000  0.50000000  0.25750000  1.0
  Si0+  Si6  1  0.00000000  0.50000000  0.75750000  1.0
  Si0+  Si7  1  0.50000000  0.00000000  0.75750000  1.0
  Au0+  Au8  1  0.00000000  0.00000000  0.62910000  1.0
  Au0+  Au9  1  0.50000000  0.50000000  0.12910000  1.0
