# generated using pymatgen
data_Rb2(CrAs)3
_symmetry_space_group_name_H-M   'P 1'
_cell_length_a   10.28100000
_cell_length_b   10.28100000
_cell_length_c   4.24210000
_cell_angle_alpha   90.00000000
_cell_angle_beta   90.00000000
_cell_angle_gamma   120.00000000
_symmetry_Int_Tables_number   1
_chemical_formula_structural   Rb2(CrAs)3
_chemical_formula_sum   'Rb4 Cr6 As6'
_cell_volume   388.31328778
_cell_formula_units_Z   2
loop_
 _symmetry_equiv_pos_site_id
 _symmetry_equiv_pos_as_xyz
  1  'x, y, z'
loop_
 _atom_type_symbol
 _atom_type_oxidation_number
  Rb+  1.0
  Cr2.33+  2.33
  As3-  -3.0
loop_
 _atom_site_type_symbol
 _atom_site_label
 _atom_site_symmetry_multiplicity
 _atom_site_fract_x
 _atom_site_fract_y
 _atom_site_fract_z
 _atom_site_occupancy
  Rb+  Rb0  1  0.53720000  0.07440000  0.50000000  1.0
  Rb+  Rb1  1  0.92560000  0.46280000  0.50000000  1.0
  Rb+  Rb2  1  0.53720000  0.46280000  0.50000000  1.0
  Rb+  Rb3  1  0.33333333  0.66666667  0.00000000  1.0
  Cr2.33+  Cr4  1  0.91400000  0.82800000  0.50000000  1.0
  Cr2.33+  Cr5  1  0.17200000  0.08600000  0.50000000  1.0
  Cr2.33+  Cr6  1  0.91400000  0.08600000  0.50000000  1.0
  Cr2.33+  Cr7  1  0.83330000  0.66660000  0.00000000  1.0
  Cr2.33+  Cr8  1  0.33340000  0.16670000  0.00000000  1.0
  Cr2.33+  Cr9  1  0.83330000  0.16670000  0.00000000  1.0
  As3-  As10  1  0.83820000  0.67640000  0.00000000  1.0
  As3-  As11  1  0.32360000  0.16180000  0.00000000  1.0
  As3-  As12  1  0.83820000  0.16180000  0.00000000  1.0
  As3-  As13  1  0.67270000  0.34540000  0.50000000  1.0
  As3-  As14  1  0.65460000  0.32730000  0.50000000  1.0
  As3-  As15  1  0.67270000  0.32730000  0.50000000  1.0
