# generated using pymatgen
data_Ba(SbPt)2
_symmetry_space_group_name_H-M   'P 1'
_cell_length_a   6.70156000
_cell_length_b   6.75246000
_cell_length_c   10.47440000
_cell_angle_alpha   90.00000000
_cell_angle_beta   91.22740000
_cell_angle_gamma   90.00000000
_symmetry_Int_Tables_number   1
_chemical_formula_structural   Ba(SbPt)2
_chemical_formula_sum   'Ba4 Sb8 Pt8'
_cell_volume   473.87896013
_cell_formula_units_Z   4
loop_
 _symmetry_equiv_pos_site_id
 _symmetry_equiv_pos_as_xyz
  1  'x, y, z'
loop_
 _atom_type_symbol
 _atom_type_oxidation_number
  Ba2+  2.0
  Sb3-  -3.0
  Pt2+  2.0
loop_
 _atom_site_type_symbol
 _atom_site_label
 _atom_site_symmetry_multiplicity
 _atom_site_fract_x
 _atom_site_fract_y
 _atom_site_fract_z
 _atom_site_occupancy
  Ba2+  Ba0  1  0.74510000  0.00000000  0.24690000  1.0
  Ba2+  Ba1  1  0.25490000  0.00000000  0.75310000  1.0
  Ba2+  Ba2  1  0.24510000  0.50000000  0.24690000  1.0
  Ba2+  Ba3  1  0.75490000  0.50000000  0.75310000  1.0
  Sb3-  Sb4  1  0.00000000  0.25050000  0.50000000  1.0
  Sb3-  Sb5  1  0.00000000  0.74950000  0.50000000  1.0
  Sb3-  Sb6  1  0.50000000  0.75050000  0.50000000  1.0
  Sb3-  Sb7  1  0.50000000  0.24950000  0.50000000  1.0
  Sb3-  Sb8  1  0.77240000  0.00000000  0.87940000  1.0
  Sb3-  Sb9  1  0.22760000  0.00000000  0.12060000  1.0
  Sb3-  Sb10  1  0.27240000  0.50000000  0.87940000  1.0
  Sb3-  Sb11  1  0.72760000  0.50000000  0.12060000  1.0
  Pt2+  Pt12  1  0.00000000  0.28230000  0.00000000  1.0
  Pt2+  Pt13  1  0.00000000  0.71770000  0.00000000  1.0
  Pt2+  Pt14  1  0.50000000  0.78230000  0.00000000  1.0
  Pt2+  Pt15  1  0.50000000  0.21770000  0.00000000  1.0
  Pt2+  Pt16  1  0.75280000  0.00000000  0.62090000  1.0
  Pt2+  Pt17  1  0.24720000  0.00000000  0.37910000  1.0
  Pt2+  Pt18  1  0.25280000  0.50000000  0.62090000  1.0
  Pt2+  Pt19  1  0.74720000  0.50000000  0.37910000  1.0
