# generated using pymatgen
data_Nb4GaSe8
_symmetry_space_group_name_H-M   'P 1'
_cell_length_a   10.41340000
_cell_length_b   10.41340000
_cell_length_c   10.41340000
_cell_angle_alpha   90.00000000
_cell_angle_beta   90.00000000
_cell_angle_gamma   90.00000000
_symmetry_Int_Tables_number   1
_chemical_formula_structural   Nb4GaSe8
_chemical_formula_sum   'Nb16 Ga4 Se32'
_cell_volume   1129.21763668
_cell_formula_units_Z   4
loop_
 _symmetry_equiv_pos_site_id
 _symmetry_equiv_pos_as_xyz
  1  'x, y, z'
loop_
 _atom_type_symbol
 _atom_type_oxidation_number
  Nb3.25+  3.25
  Ga3+  3.0
  Se2-  -2.0
loop_
 _atom_site_type_symbol
 _atom_site_label
 _atom_site_symmetry_multiplicity
 _atom_site_fract_x
 _atom_site_fract_y
 _atom_site_fract_z
 _atom_site_occupancy
  Nb3.25+  Nb0  1  0.39720000  0.39720000  0.60280000  1.0
  Nb3.25+  Nb1  1  0.39720000  0.60280000  0.39720000  1.0
  Nb3.25+  Nb2  1  0.60280000  0.39720000  0.39720000  1.0
  Nb3.25+  Nb3  1  0.60280000  0.60280000  0.60280000  1.0
  Nb3.25+  Nb4  1  0.39720000  0.89720000  0.10280000  1.0
  Nb3.25+  Nb5  1  0.39720000  0.10280000  0.89720000  1.0
  Nb3.25+  Nb6  1  0.60280000  0.89720000  0.89720000  1.0
  Nb3.25+  Nb7  1  0.60280000  0.10280000  0.10280000  1.0
  Nb3.25+  Nb8  1  0.89720000  0.39720000  0.10280000  1.0
  Nb3.25+  Nb9  1  0.89720000  0.60280000  0.89720000  1.0
  Nb3.25+  Nb10  1  0.10280000  0.39720000  0.89720000  1.0
  Nb3.25+  Nb11  1  0.10280000  0.60280000  0.10280000  1.0
  Nb3.25+  Nb12  1  0.89720000  0.89720000  0.60280000  1.0
  Nb3.25+  Nb13  1  0.89720000  0.10280000  0.39720000  1.0
  Nb3.25+  Nb14  1  0.10280000  0.89720000  0.39720000  1.0
  Nb3.25+  Nb15  1  0.10280000  0.10280000  0.60280000  1.0
  Ga3+  Ga16  1  0.00000000  0.00000000  0.00000000  1.0
  Ga3+  Ga17  1  0.00000000  0.50000000  0.50000000  1.0
  Ga3+  Ga18  1  0.50000000  0.00000000  0.50000000  1.0
  Ga3+  Ga19  1  0.50000000  0.50000000  0.00000000  1.0
  Se2-  Se20  1  0.63700000  0.63700000  0.36300000  1.0
  Se2-  Se21  1  0.63700000  0.36300000  0.63700000  1.0
  Se2-  Se22  1  0.36300000  0.63700000  0.63700000  1.0
  Se2-  Se23  1  0.36300000  0.36300000  0.36300000  1.0
  Se2-  Se24  1  0.63700000  0.13700000  0.86300000  1.0
  Se2-  Se25  1  0.63700000  0.86300000  0.13700000  1.0
  Se2-  Se26  1  0.36300000  0.13700000  0.13700000  1.0
  Se2-  Se27  1  0.36300000  0.86300000  0.86300000  1.0
  Se2-  Se28  1  0.13700000  0.63700000  0.86300000  1.0
  Se2-  Se29  1  0.13700000  0.36300000  0.13700000  1.0
  Se2-  Se30  1  0.86300000  0.63700000  0.13700000  1.0
  Se2-  Se31  1  0.86300000  0.36300000  0.86300000  1.0
  Se2-  Se32  1  0.13700000  0.13700000  0.36300000  1.0
  Se2-  Se33  1  0.13700000  0.86300000  0.63700000  1.0
  Se2-  Se34  1  0.86300000  0.13700000  0.63700000  1.0
  Se2-  Se35  1  0.86300000  0.86300000  0.36300000  1.0
  Se2-  Se36  1  0.13300000  0.13300000  0.86700000  1.0
  Se2-  Se37  1  0.13300000  0.86700000  0.13300000  1.0
  Se2-  Se38  1  0.86700000  0.13300000  0.13300000  1.0
  Se2-  Se39  1  0.86700000  0.86700000  0.86700000  1.0
  Se2-  Se40  1  0.13300000  0.63300000  0.36700000  1.0
  Se2-  Se41  1  0.13300000  0.36700000  0.63300000  1.0
  Se2-  Se42  1  0.86700000  0.63300000  0.63300000  1.0
  Se2-  Se43  1  0.86700000  0.36700000  0.36700000  1.0
  Se2-  Se44  1  0.63300000  0.13300000  0.36700000  1.0
  Se2-  Se45  1  0.63300000  0.86700000  0.63300000  1.0
  Se2-  Se46  1  0.36700000  0.13300000  0.63300000  1.0
  Se2-  Se47  1  0.36700000  0.86700000  0.36700000  1.0
  Se2-  Se48  1  0.63300000  0.63300000  0.86700000  1.0
  Se2-  Se49  1  0.63300000  0.36700000  0.13300000  1.0
  Se2-  Se50  1  0.36700000  0.63300000  0.13300000  1.0
  Se2-  Se51  1  0.36700000  0.36700000  0.86700000  1.0
