# generated using pymatgen
data_BW2
_symmetry_space_group_name_H-M   'P 1'
_cell_length_a   5.56400000
_cell_length_b   5.56400000
_cell_length_c   4.74000000
_cell_angle_alpha   90.00000000
_cell_angle_beta   90.00000000
_cell_angle_gamma   90.00000000
_symmetry_Int_Tables_number   1
_chemical_formula_structural   BW2
_chemical_formula_sum   'B4 W8'
_cell_volume   146.74137504
_cell_formula_units_Z   4
loop_
 _symmetry_equiv_pos_site_id
 _symmetry_equiv_pos_as_xyz
  1  'x, y, z'
loop_
 _atom_type_symbol
 _atom_type_oxidation_number
  B0+  0.0
  W0+  0.0
loop_
 _atom_site_type_symbol
 _atom_site_label
 _atom_site_symmetry_multiplicity
 _atom_site_fract_x
 _atom_site_fract_y
 _atom_site_fract_z
 _atom_site_occupancy
  B0+  B0  1  0.00000000  0.00000000  0.25000000  1.0
  B0+  B1  1  0.00000000  0.00000000  0.75000000  1.0
  B0+  B2  1  0.50000000  0.50000000  0.75000000  1.0
  B0+  B3  1  0.50000000  0.50000000  0.25000000  1.0
  W0+  W4  1  0.67000000  0.17000000  0.50000000  1.0
  W0+  W5  1  0.33000000  0.83000000  0.50000000  1.0
  W0+  W6  1  0.33000000  0.17000000  0.00000000  1.0
  W0+  W7  1  0.67000000  0.83000000  0.00000000  1.0
  W0+  W8  1  0.17000000  0.33000000  0.50000000  1.0
  W0+  W9  1  0.83000000  0.67000000  0.50000000  1.0
  W0+  W10  1  0.17000000  0.67000000  0.00000000  1.0
  W0+  W11  1  0.83000000  0.33000000  0.00000000  1.0
