# generated using pymatgen
data_Zn3Au
_symmetry_space_group_name_H-M   'P 1'
_cell_length_a   7.92000000
_cell_length_b   7.92000000
_cell_length_c   7.92000000
_cell_angle_alpha   90.00000000
_cell_angle_beta   90.00000000
_cell_angle_gamma   90.00000000
_symmetry_Int_Tables_number   1
_chemical_formula_structural   Zn3Au
_chemical_formula_sum   'Zn24 Au8'
_cell_volume   496.79308800
_cell_formula_units_Z   8
loop_
 _symmetry_equiv_pos_site_id
 _symmetry_equiv_pos_as_xyz
  1  'x, y, z'
loop_
 _atom_type_symbol
 _atom_type_oxidation_number
  Zn0+  0.0
  Au0+  0.0
loop_
 _atom_site_type_symbol
 _atom_site_label
 _atom_site_symmetry_multiplicity
 _atom_site_fract_x
 _atom_site_fract_y
 _atom_site_fract_z
 _atom_site_occupancy
  Zn0+  Zn0  1  0.80000000  0.33500000  0.50000000  1.0
  Zn0+  Zn1  1  0.66500000  0.50000000  0.80000000  1.0
  Zn0+  Zn2  1  0.50000000  0.20000000  0.66500000  1.0
  Zn0+  Zn3  1  0.20000000  0.66500000  0.50000000  1.0
  Zn0+  Zn4  1  0.33500000  0.50000000  0.20000000  1.0
  Zn0+  Zn5  1  0.50000000  0.80000000  0.33500000  1.0
  Zn0+  Zn6  1  0.80000000  0.66500000  0.50000000  1.0
  Zn0+  Zn7  1  0.66500000  0.50000000  0.20000000  1.0
  Zn0+  Zn8  1  0.20000000  0.33500000  0.50000000  1.0
  Zn0+  Zn9  1  0.33500000  0.50000000  0.80000000  1.0
  Zn0+  Zn10  1  0.50000000  0.80000000  0.66500000  1.0
  Zn0+  Zn11  1  0.50000000  0.20000000  0.33500000  1.0
  Zn0+  Zn12  1  0.30000000  0.00000000  0.83500000  1.0
  Zn0+  Zn13  1  0.16500000  0.30000000  0.00000000  1.0
  Zn0+  Zn14  1  0.00000000  0.16500000  0.70000000  1.0
  Zn0+  Zn15  1  0.70000000  0.00000000  0.16500000  1.0
  Zn0+  Zn16  1  0.83500000  0.70000000  0.00000000  1.0
  Zn0+  Zn17  1  0.00000000  0.83500000  0.30000000  1.0
  Zn0+  Zn18  1  0.30000000  0.00000000  0.16500000  1.0
  Zn0+  Zn19  1  0.16500000  0.70000000  0.00000000  1.0
  Zn0+  Zn20  1  0.70000000  0.00000000  0.83500000  1.0
  Zn0+  Zn21  1  0.83500000  0.30000000  0.00000000  1.0
  Zn0+  Zn22  1  0.00000000  0.16500000  0.30000000  1.0
  Zn0+  Zn23  1  0.00000000  0.83500000  0.70000000  1.0
  Au0+  Au24  1  0.50000000  0.50000000  0.50000000  1.0
  Au0+  Au25  1  0.00000000  0.00000000  0.00000000  1.0
  Au0+  Au26  1  0.00000000  0.50000000  0.75000000  1.0
  Au0+  Au27  1  0.50000000  0.25000000  0.00000000  1.0
  Au0+  Au28  1  0.75000000  0.00000000  0.50000000  1.0
  Au0+  Au29  1  0.00000000  0.50000000  0.25000000  1.0
  Au0+  Au30  1  0.50000000  0.75000000  0.00000000  1.0
  Au0+  Au31  1  0.25000000  0.00000000  0.50000000  1.0
