# generated using pymatgen
data_RbC8
_symmetry_space_group_name_H-M   'P 1'
_cell_length_a   4.92600000
_cell_length_b   8.53200000
_cell_length_c   22.47100000
_cell_angle_alpha   90.00000000
_cell_angle_beta   90.00000000
_cell_angle_gamma   90.00000000
_symmetry_Int_Tables_number   1
_chemical_formula_structural   RbC8
_chemical_formula_sum   'Rb8 C64'
_cell_volume   944.42538967
_cell_formula_units_Z   8
loop_
 _symmetry_equiv_pos_site_id
 _symmetry_equiv_pos_as_xyz
  1  'x, y, z'
loop_
 _atom_type_symbol
 _atom_type_oxidation_number
  Rb0+  0.0
  C0+  0.0
loop_
 _atom_site_type_symbol
 _atom_site_label
 _atom_site_symmetry_multiplicity
 _atom_site_fract_x
 _atom_site_fract_y
 _atom_site_fract_z
 _atom_site_occupancy
  Rb0+  Rb0  1  0.25000000  0.25000000  0.25000000  1.0
  Rb0+  Rb1  1  0.00000000  0.00000000  0.00000000  1.0
  Rb0+  Rb2  1  0.25000000  0.75000000  0.75000000  1.0
  Rb0+  Rb3  1  0.00000000  0.50000000  0.50000000  1.0
  Rb0+  Rb4  1  0.75000000  0.25000000  0.75000000  1.0
  Rb0+  Rb5  1  0.50000000  0.00000000  0.50000000  1.0
  Rb0+  Rb6  1  0.75000000  0.75000000  0.25000000  1.0
  Rb0+  Rb7  1  0.50000000  0.50000000  0.00000000  1.0
  C0+  C8  1  0.50000000  0.33333000  0.12500000  1.0
  C0+  C9  1  0.00000000  0.33333000  0.37500000  1.0
  C0+  C10  1  0.75000000  0.91667000  0.12500000  1.0
  C0+  C11  1  0.25000000  0.91667000  0.87500000  1.0
  C0+  C12  1  0.50000000  0.16667000  0.37500000  1.0
  C0+  C13  1  0.00000000  0.16667000  0.12500000  1.0
  C0+  C14  1  0.75000000  0.08333000  0.87500000  1.0
  C0+  C15  1  0.25000000  0.08333000  0.12500000  1.0
  C0+  C16  1  0.50000000  0.83333000  0.62500000  1.0
  C0+  C17  1  0.00000000  0.83333000  0.87500000  1.0
  C0+  C18  1  0.75000000  0.41667000  0.62500000  1.0
  C0+  C19  1  0.25000000  0.41667000  0.37500000  1.0
  C0+  C20  1  0.50000000  0.66667000  0.87500000  1.0
  C0+  C21  1  0.00000000  0.66667000  0.62500000  1.0
  C0+  C22  1  0.75000000  0.58333000  0.37500000  1.0
  C0+  C23  1  0.25000000  0.58333000  0.62500000  1.0
  C0+  C24  1  0.00000000  0.33333000  0.62500000  1.0
  C0+  C25  1  0.50000000  0.33333000  0.87500000  1.0
  C0+  C26  1  0.25000000  0.91667000  0.62500000  1.0
  C0+  C27  1  0.75000000  0.91667000  0.37500000  1.0
  C0+  C28  1  0.00000000  0.16667000  0.87500000  1.0
  C0+  C29  1  0.50000000  0.16667000  0.62500000  1.0
  C0+  C30  1  0.25000000  0.08333000  0.37500000  1.0
  C0+  C31  1  0.75000000  0.08333000  0.62500000  1.0
  C0+  C32  1  0.00000000  0.83333000  0.12500000  1.0
  C0+  C33  1  0.50000000  0.83333000  0.37500000  1.0
  C0+  C34  1  0.25000000  0.41667000  0.12500000  1.0
  C0+  C35  1  0.75000000  0.41667000  0.87500000  1.0
  C0+  C36  1  0.00000000  0.66667000  0.37500000  1.0
  C0+  C37  1  0.50000000  0.66667000  0.12500000  1.0
  C0+  C38  1  0.25000000  0.58333000  0.87500000  1.0
  C0+  C39  1  0.75000000  0.58333000  0.12500000  1.0
  C0+  C40  1  0.50000000  0.33333000  0.62500000  1.0
  C0+  C41  1  0.00000000  0.33333000  0.87500000  1.0
  C0+  C42  1  0.75000000  0.91667000  0.62500000  1.0
  C0+  C43  1  0.25000000  0.91667000  0.37500000  1.0
  C0+  C44  1  0.50000000  0.16667000  0.87500000  1.0
  C0+  C45  1  0.00000000  0.16667000  0.62500000  1.0
  C0+  C46  1  0.75000000  0.08333000  0.37500000  1.0
  C0+  C47  1  0.25000000  0.08333000  0.62500000  1.0
  C0+  C48  1  0.50000000  0.83333000  0.12500000  1.0
  C0+  C49  1  0.00000000  0.83333000  0.37500000  1.0
  C0+  C50  1  0.75000000  0.41667000  0.12500000  1.0
  C0+  C51  1  0.25000000  0.41667000  0.87500000  1.0
  C0+  C52  1  0.50000000  0.66667000  0.37500000  1.0
  C0+  C53  1  0.00000000  0.66667000  0.12500000  1.0
  C0+  C54  1  0.75000000  0.58333000  0.87500000  1.0
  C0+  C55  1  0.25000000  0.58333000  0.12500000  1.0
  C0+  C56  1  0.00000000  0.33333000  0.12500000  1.0
  C0+  C57  1  0.50000000  0.33333000  0.37500000  1.0
  C0+  C58  1  0.25000000  0.91667000  0.12500000  1.0
  C0+  C59  1  0.75000000  0.91667000  0.87500000  1.0
  C0+  C60  1  0.00000000  0.16667000  0.37500000  1.0
  C0+  C61  1  0.50000000  0.16667000  0.12500000  1.0
  C0+  C62  1  0.25000000  0.08333000  0.87500000  1.0
  C0+  C63  1  0.75000000  0.08333000  0.12500000  1.0
  C0+  C64  1  0.00000000  0.83333000  0.62500000  1.0
  C0+  C65  1  0.50000000  0.83333000  0.87500000  1.0
  C0+  C66  1  0.25000000  0.41667000  0.62500000  1.0
  C0+  C67  1  0.75000000  0.41667000  0.37500000  1.0
  C0+  C68  1  0.00000000  0.66667000  0.87500000  1.0
  C0+  C69  1  0.50000000  0.66667000  0.62500000  1.0
  C0+  C70  1  0.25000000  0.58333000  0.37500000  1.0
  C0+  C71  1  0.75000000  0.58333000  0.62500000  1.0
