# generated using pymatgen
data_Eu3Bi2(SF)4
_symmetry_space_group_name_H-M   'P 1'
_cell_length_a   4.07480000
_cell_length_b   4.07480000
_cell_length_c   32.34000000
_cell_angle_alpha   90.00000000
_cell_angle_beta   90.00000000
_cell_angle_gamma   90.00000000
_symmetry_Int_Tables_number   1
_chemical_formula_structural   Eu3Bi2(SF)4
_chemical_formula_sum   'Eu6 Bi4 S8 F8'
_cell_volume   536.97319959
_cell_formula_units_Z   2
loop_
 _symmetry_equiv_pos_site_id
 _symmetry_equiv_pos_as_xyz
  1  'x, y, z'
loop_
 _atom_type_symbol
 _atom_type_oxidation_number
  Eu2+  2.0
  Bi3+  3.0
  S2-  -2.0
  F-  -1.0
loop_
 _atom_site_type_symbol
 _atom_site_label
 _atom_site_symmetry_multiplicity
 _atom_site_fract_x
 _atom_site_fract_y
 _atom_site_fract_z
 _atom_site_occupancy
  Eu2+  Eu0  1  0.00000000  0.00000000  0.59294000  1.0
  Eu2+  Eu1  1  0.00000000  0.00000000  0.40706000  1.0
  Eu2+  Eu2  1  0.50000000  0.50000000  0.09294000  1.0
  Eu2+  Eu3  1  0.50000000  0.50000000  0.90706000  1.0
  Eu2+  Eu4  1  0.00000000  0.00000000  0.00000000  1.0
  Eu2+  Eu5  1  0.50000000  0.50000000  0.50000000  1.0
  Bi3+  Bi6  1  0.00000000  0.00000000  0.80193000  1.0
  Bi3+  Bi7  1  0.00000000  0.00000000  0.19807000  1.0
  Bi3+  Bi8  1  0.50000000  0.50000000  0.30193000  1.0
  Bi3+  Bi9  1  0.50000000  0.50000000  0.69807000  1.0
  S2-  S10  1  0.00000000  0.00000000  0.87976000  1.0
  S2-  S11  1  0.00000000  0.00000000  0.12024000  1.0
  S2-  S12  1  0.50000000  0.50000000  0.37976000  1.0
  S2-  S13  1  0.50000000  0.50000000  0.62024000  1.0
  S2-  S14  1  0.00000000  0.00000000  0.69897000  1.0
  S2-  S15  1  0.00000000  0.00000000  0.30103000  1.0
  S2-  S16  1  0.50000000  0.50000000  0.19897000  1.0
  S2-  S17  1  0.50000000  0.50000000  0.80103000  1.0
  F-  F18  1  0.50000000  0.00000000  0.95860000  1.0
  F-  F19  1  0.00000000  0.50000000  0.95860000  1.0
  F-  F20  1  0.50000000  0.00000000  0.04140000  1.0
  F-  F21  1  0.00000000  0.50000000  0.04140000  1.0
  F-  F22  1  0.00000000  0.50000000  0.45860000  1.0
  F-  F23  1  0.50000000  0.00000000  0.45860000  1.0
  F-  F24  1  0.00000000  0.50000000  0.54140000  1.0
  F-  F25  1  0.50000000  0.00000000  0.54140000  1.0
