# generated using pymatgen
data_Tl(MoSe)3
_symmetry_space_group_name_H-M   'P 1'
_cell_length_a   8.91800000
_cell_length_b   8.91800000
_cell_length_c   4.48200000
_cell_angle_alpha   90.00000000
_cell_angle_beta   90.00000000
_cell_angle_gamma   120.00000000
_symmetry_Int_Tables_number   1
_chemical_formula_structural   Tl(MoSe)3
_chemical_formula_sum   'Tl2 Mo6 Se6'
_cell_volume   308.70056185
_cell_formula_units_Z   2
loop_
 _symmetry_equiv_pos_site_id
 _symmetry_equiv_pos_as_xyz
  1  'x, y, z'
loop_
 _atom_type_symbol
 _atom_type_oxidation_number
  Tl0+  0.0
  Mo0+  0.0
  Se0+  0.0
loop_
 _atom_site_type_symbol
 _atom_site_label
 _atom_site_symmetry_multiplicity
 _atom_site_fract_x
 _atom_site_fract_y
 _atom_site_fract_z
 _atom_site_occupancy
  Tl0+  Tl0  1  0.66666667  0.33333333  0.25000000  1.0
  Tl0+  Tl1  1  0.33333333  0.66666667  0.75000000  1.0
  Mo0+  Mo2  1  0.96730000  0.81430000  0.25000000  1.0
  Mo0+  Mo3  1  0.84700000  0.03270000  0.25000000  1.0
  Mo0+  Mo4  1  0.18570000  0.15300000  0.25000000  1.0
  Mo0+  Mo5  1  0.03270000  0.18570000  0.75000000  1.0
  Mo0+  Mo6  1  0.15300000  0.96730000  0.75000000  1.0
  Mo0+  Mo7  1  0.81430000  0.84700000  0.75000000  1.0
  Se0+  Se8  1  0.30020000  0.93440000  0.25000000  1.0
  Se0+  Se9  1  0.63420000  0.69980000  0.25000000  1.0
  Se0+  Se10  1  0.06560000  0.36580000  0.25000000  1.0
  Se0+  Se11  1  0.69980000  0.06560000  0.75000000  1.0
  Se0+  Se12  1  0.36580000  0.30020000  0.75000000  1.0
  Se0+  Se13  1  0.93440000  0.63420000  0.75000000  1.0
