# generated using pymatgen
data_BMo2C
_symmetry_space_group_name_H-M   'P 1'
_cell_length_a   3.08600000
_cell_length_b   17.35000000
_cell_length_c   3.04700000
_cell_angle_alpha   90.00000000
_cell_angle_beta   90.00000000
_cell_angle_gamma   90.00000000
_symmetry_Int_Tables_number   1
_chemical_formula_structural   BMo2C
_chemical_formula_sum   'B4 Mo8 C4'
_cell_volume   163.14277870
_cell_formula_units_Z   4
loop_
 _symmetry_equiv_pos_site_id
 _symmetry_equiv_pos_as_xyz
  1  'x, y, z'
loop_
 _atom_type_symbol
 _atom_type_oxidation_number
  B0+  0.0
  Mo0+  0.0
  C0+  0.0
loop_
 _atom_site_type_symbol
 _atom_site_label
 _atom_site_symmetry_multiplicity
 _atom_site_fract_x
 _atom_site_fract_y
 _atom_site_fract_z
 _atom_site_occupancy
  B0+  B0  1  0.00000000  0.47310000  0.25000000  1.0
  B0+  B1  1  0.00000000  0.52690000  0.75000000  1.0
  B0+  B2  1  0.50000000  0.97310000  0.25000000  1.0
  B0+  B3  1  0.50000000  0.02690000  0.75000000  1.0
  Mo0+  Mo4  1  0.00000000  0.07210000  0.25000000  1.0
  Mo0+  Mo5  1  0.00000000  0.92790000  0.75000000  1.0
  Mo0+  Mo6  1  0.50000000  0.57210000  0.25000000  1.0
  Mo0+  Mo7  1  0.50000000  0.42790000  0.75000000  1.0
  Mo0+  Mo8  1  0.00000000  0.31390000  0.25000000  1.0
  Mo0+  Mo9  1  0.00000000  0.68610000  0.75000000  1.0
  Mo0+  Mo10  1  0.50000000  0.81390000  0.25000000  1.0
  Mo0+  Mo11  1  0.50000000  0.18610000  0.75000000  1.0
  C0+  C12  1  0.00000000  0.19200000  0.25000000  1.0
  C0+  C13  1  0.00000000  0.80800000  0.75000000  1.0
  C0+  C14  1  0.50000000  0.69200000  0.25000000  1.0
  C0+  C15  1  0.50000000  0.30800000  0.75000000  1.0
