# generated using pymatgen
data_ZrGeRu
_symmetry_space_group_name_H-M   'P 1'
_cell_length_a   7.47900000
_cell_length_b   11.67500000
_cell_length_c   6.77200000
_cell_angle_alpha   90.00000000
_cell_angle_beta   90.00000000
_cell_angle_gamma   90.00000000
_symmetry_Int_Tables_number   1
_chemical_formula_structural   ZrGeRu
_chemical_formula_sum   'Zr12 Ge12 Ru12'
_cell_volume   591.31292490
_cell_formula_units_Z   12
loop_
 _symmetry_equiv_pos_site_id
 _symmetry_equiv_pos_as_xyz
  1  'x, y, z'
loop_
 _atom_type_symbol
 _atom_type_oxidation_number
  Zr0+  0.0
  Ge0+  0.0
  Ru0+  0.0
loop_
 _atom_site_type_symbol
 _atom_site_label
 _atom_site_symmetry_multiplicity
 _atom_site_fract_x
 _atom_site_fract_y
 _atom_site_fract_z
 _atom_site_occupancy
  Zr0+  Zr0  1  0.75000000  0.80000000  0.29600000  1.0
  Zr0+  Zr1  1  0.25000000  0.20000000  0.29600000  1.0
  Zr0+  Zr2  1  0.25000000  0.30000000  0.79600000  1.0
  Zr0+  Zr3  1  0.75000000  0.70000000  0.79600000  1.0
  Zr0+  Zr4  1  0.75000000  0.22100000  0.27100000  1.0
  Zr0+  Zr5  1  0.25000000  0.77900000  0.27100000  1.0
  Zr0+  Zr6  1  0.25000000  0.72100000  0.77100000  1.0
  Zr0+  Zr7  1  0.75000000  0.27900000  0.77100000  1.0
  Zr0+  Zr8  1  0.75000000  0.00200000  0.91800000  1.0
  Zr0+  Zr9  1  0.25000000  0.99800000  0.91800000  1.0
  Zr0+  Zr10  1  0.25000000  0.50200000  0.41800000  1.0
  Zr0+  Zr11  1  0.75000000  0.49800000  0.41800000  1.0
  Ge0+  Ge12  1  0.50600000  0.83300000  0.99500000  1.0
  Ge0+  Ge13  1  0.49400000  0.16700000  0.99500000  1.0
  Ge0+  Ge14  1  0.99400000  0.83300000  0.99500000  1.0
  Ge0+  Ge15  1  0.00600000  0.16700000  0.99500000  1.0
  Ge0+  Ge16  1  0.00600000  0.33300000  0.49500000  1.0
  Ge0+  Ge17  1  0.99400000  0.66700000  0.49500000  1.0
  Ge0+  Ge18  1  0.49400000  0.33300000  0.49500000  1.0
  Ge0+  Ge19  1  0.50600000  0.66700000  0.49500000  1.0
  Ge0+  Ge20  1  0.75000000  0.02500000  0.50500000  1.0
  Ge0+  Ge21  1  0.25000000  0.97500000  0.50500000  1.0
  Ge0+  Ge22  1  0.25000000  0.52500000  0.00500000  1.0
  Ge0+  Ge23  1  0.75000000  0.47500000  0.00500000  1.0
  Ru0+  Ru24  1  0.52900000  0.62400000  0.12000000  1.0
  Ru0+  Ru25  1  0.47100000  0.37600000  0.12000000  1.0
  Ru0+  Ru26  1  0.97100000  0.62400000  0.12000000  1.0
  Ru0+  Ru27  1  0.02900000  0.37600000  0.12000000  1.0
  Ru0+  Ru28  1  0.02900000  0.12400000  0.62000000  1.0
  Ru0+  Ru29  1  0.97100000  0.87600000  0.62000000  1.0
  Ru0+  Ru30  1  0.47100000  0.12400000  0.62000000  1.0
  Ru0+  Ru31  1  0.52900000  0.87600000  0.62000000  1.0
  Ru0+  Ru32  1  0.50000000  0.00000000  0.25000000  1.0
  Ru0+  Ru33  1  0.00000000  0.00000000  0.25000000  1.0
  Ru0+  Ru34  1  0.00000000  0.50000000  0.75000000  1.0
  Ru0+  Ru35  1  0.50000000  0.50000000  0.75000000  1.0
