# generated using pymatgen
data_Mo3P
_symmetry_space_group_name_H-M   'P 1'
_cell_length_a   9.79250000
_cell_length_b   9.79250000
_cell_length_c   4.82460000
_cell_angle_alpha   90.00000000
_cell_angle_beta   90.00000000
_cell_angle_gamma   90.00000000
_symmetry_Int_Tables_number   1
_chemical_formula_structural   Mo3P
_chemical_formula_sum   'Mo24 P8'
_cell_volume   462.64563918
_cell_formula_units_Z   8
loop_
 _symmetry_equiv_pos_site_id
 _symmetry_equiv_pos_as_xyz
  1  'x, y, z'
loop_
 _atom_type_symbol
 _atom_type_oxidation_number
  Mo0+  0.0
  P0+  0.0
loop_
 _atom_site_type_symbol
 _atom_site_label
 _atom_site_symmetry_multiplicity
 _atom_site_fract_x
 _atom_site_fract_y
 _atom_site_fract_z
 _atom_site_occupancy
  Mo0+  Mo0  1  0.90744000  0.90744000  0.26622000  1.0
  Mo0+  Mo1  1  0.09256000  0.09256000  0.26622000  1.0
  Mo0+  Mo2  1  0.09256000  0.90744000  0.73378000  1.0
  Mo0+  Mo3  1  0.90744000  0.09256000  0.73378000  1.0
  Mo0+  Mo4  1  0.40744000  0.40744000  0.76622000  1.0
  Mo0+  Mo5  1  0.59256000  0.59256000  0.76622000  1.0
  Mo0+  Mo6  1  0.59256000  0.40744000  0.23378000  1.0
  Mo0+  Mo7  1  0.40744000  0.59256000  0.23378000  1.0
  Mo0+  Mo8  1  0.70126000  0.70126000  0.26637000  1.0
  Mo0+  Mo9  1  0.29874000  0.29874000  0.26637000  1.0
  Mo0+  Mo10  1  0.29874000  0.70126000  0.73363000  1.0
  Mo0+  Mo11  1  0.70126000  0.29874000  0.73363000  1.0
  Mo0+  Mo12  1  0.20126000  0.20126000  0.76637000  1.0
  Mo0+  Mo13  1  0.79874000  0.79874000  0.76637000  1.0
  Mo0+  Mo14  1  0.79874000  0.20126000  0.23363000  1.0
  Mo0+  Mo15  1  0.20126000  0.79874000  0.23363000  1.0
  Mo0+  Mo16  1  0.00000000  0.64500000  0.50000000  1.0
  Mo0+  Mo17  1  0.00000000  0.35500000  0.50000000  1.0
  Mo0+  Mo18  1  0.35500000  0.00000000  0.50000000  1.0
  Mo0+  Mo19  1  0.64500000  0.00000000  0.50000000  1.0
  Mo0+  Mo20  1  0.50000000  0.14500000  0.00000000  1.0
  Mo0+  Mo21  1  0.50000000  0.85500000  0.00000000  1.0
  Mo0+  Mo22  1  0.85500000  0.50000000  0.00000000  1.0
  Mo0+  Mo23  1  0.14500000  0.50000000  0.00000000  1.0
  P0+  P24  1  0.00000000  0.70866000  0.00000000  1.0
  P0+  P25  1  0.00000000  0.29134000  0.00000000  1.0
  P0+  P26  1  0.29134000  0.00000000  0.00000000  1.0
  P0+  P27  1  0.70866000  0.00000000  0.00000000  1.0
  P0+  P28  1  0.50000000  0.20866000  0.50000000  1.0
  P0+  P29  1  0.50000000  0.79134000  0.50000000  1.0
  P0+  P30  1  0.79134000  0.50000000  0.50000000  1.0
  P0+  P31  1  0.20866000  0.50000000  0.50000000  1.0
