# generated using pymatgen
data_Pd4Se
_symmetry_space_group_name_H-M   'P 1'
_cell_length_a   5.23240000
_cell_length_b   5.23240000
_cell_length_c   5.64700000
_cell_angle_alpha   90.00000000
_cell_angle_beta   90.00000000
_cell_angle_gamma   90.00000000
_symmetry_Int_Tables_number   1
_chemical_formula_structural   Pd4Se
_chemical_formula_sum   'Pd8 Se2'
_cell_volume   154.60362111
_cell_formula_units_Z   2
loop_
 _symmetry_equiv_pos_site_id
 _symmetry_equiv_pos_as_xyz
  1  'x, y, z'
loop_
 _atom_type_symbol
 _atom_type_oxidation_number
  Pd0+  0.0
  Se0+  0.0
loop_
 _atom_site_type_symbol
 _atom_site_label
 _atom_site_symmetry_multiplicity
 _atom_site_fract_x
 _atom_site_fract_y
 _atom_site_fract_z
 _atom_site_occupancy
  Pd0+  Pd0  1  0.73200000  0.87400000  0.65400000  1.0
  Pd0+  Pd1  1  0.23200000  0.62600000  0.84600000  1.0
  Pd0+  Pd2  1  0.26800000  0.12600000  0.65400000  1.0
  Pd0+  Pd3  1  0.76800000  0.37400000  0.84600000  1.0
  Pd0+  Pd4  1  0.87400000  0.26800000  0.34600000  1.0
  Pd0+  Pd5  1  0.62600000  0.76800000  0.15400000  1.0
  Pd0+  Pd6  1  0.12600000  0.73200000  0.34600000  1.0
  Pd0+  Pd7  1  0.37400000  0.23200000  0.15400000  1.0
  Se0+  Se8  1  0.50000000  0.50000000  0.50000000  1.0
  Se0+  Se9  1  0.00000000  0.00000000  0.00000000  1.0
