# generated using pymatgen
data_Li2BPt3
_symmetry_space_group_name_H-M   'P 1'
_cell_length_a   6.73450000
_cell_length_b   6.73450000
_cell_length_c   6.73450000
_cell_angle_alpha   90.00000000
_cell_angle_beta   90.00000000
_cell_angle_gamma   90.00000000
_symmetry_Int_Tables_number   1
_chemical_formula_structural   Li2BPt3
_chemical_formula_sum   'Li8 B4 Pt12'
_cell_volume   305.43308009
_cell_formula_units_Z   4
loop_
 _symmetry_equiv_pos_site_id
 _symmetry_equiv_pos_as_xyz
  1  'x, y, z'
loop_
 _atom_type_symbol
 _atom_type_oxidation_number
  Li0+  0.0
  B0+  0.0
  Pt0+  0.0
loop_
 _atom_site_type_symbol
 _atom_site_label
 _atom_site_symmetry_multiplicity
 _atom_site_fract_x
 _atom_site_fract_y
 _atom_site_fract_z
 _atom_site_occupancy
  Li0+  Li0  1  0.55310000  0.05310000  0.44690000  1.0
  Li0+  Li1  1  0.44690000  0.55310000  0.05310000  1.0
  Li0+  Li2  1  0.05310000  0.44690000  0.55310000  1.0
  Li0+  Li3  1  0.94690000  0.94690000  0.94690000  1.0
  Li0+  Li4  1  0.19690000  0.69690000  0.80310000  1.0
  Li0+  Li5  1  0.69690000  0.80310000  0.19690000  1.0
  Li0+  Li6  1  0.80310000  0.19690000  0.69690000  1.0
  Li0+  Li7  1  0.30310000  0.30310000  0.30310000  1.0
  B0+  B8  1  0.87500000  0.37500000  0.12500000  1.0
  B0+  B9  1  0.12500000  0.87500000  0.37500000  1.0
  B0+  B10  1  0.37500000  0.12500000  0.87500000  1.0
  B0+  B11  1  0.62500000  0.62500000  0.62500000  1.0
  Pt0+  Pt12  1  0.19130000  0.05870000  0.62500000  1.0
  Pt0+  Pt13  1  0.80870000  0.55870000  0.87500000  1.0
  Pt0+  Pt14  1  0.55870000  0.87500000  0.80870000  1.0
  Pt0+  Pt15  1  0.44130000  0.37500000  0.69130000  1.0
  Pt0+  Pt16  1  0.37500000  0.69130000  0.44130000  1.0
  Pt0+  Pt17  1  0.62500000  0.19130000  0.05870000  1.0
  Pt0+  Pt18  1  0.69130000  0.44130000  0.37500000  1.0
  Pt0+  Pt19  1  0.30870000  0.94130000  0.12500000  1.0
  Pt0+  Pt20  1  0.05870000  0.62500000  0.19130000  1.0
  Pt0+  Pt21  1  0.94130000  0.12500000  0.30870000  1.0
  Pt0+  Pt22  1  0.87500000  0.80870000  0.55870000  1.0
  Pt0+  Pt23  1  0.12500000  0.30870000  0.94130000  1.0
