# generated using pymatgen
data_Mg4AlSi3
_symmetry_space_group_name_H-M   'P 1'
_cell_length_a   6.72250000
_cell_length_b   6.72250000
_cell_length_c   13.51500000
_cell_angle_alpha   90.00000000
_cell_angle_beta   90.00000000
_cell_angle_gamma   90.00000000
_symmetry_Int_Tables_number   1
_chemical_formula_structural   Mg4AlSi3
_chemical_formula_sum   'Mg16 Al4 Si12'
_cell_volume   610.76996447
_cell_formula_units_Z   4
loop_
 _symmetry_equiv_pos_site_id
 _symmetry_equiv_pos_as_xyz
  1  'x, y, z'
loop_
 _atom_type_symbol
 _atom_type_oxidation_number
  Mg0+  0.0
  Al0+  0.0
  Si0+  0.0
loop_
 _atom_site_type_symbol
 _atom_site_label
 _atom_site_symmetry_multiplicity
 _atom_site_fract_x
 _atom_site_fract_y
 _atom_site_fract_z
 _atom_site_occupancy
  Mg0+  Mg0  1  0.56945000  0.40477000  0.09726000  1.0
  Mg0+  Mg1  1  0.93055000  0.40477000  0.59726000  1.0
  Mg0+  Mg2  1  0.56945000  0.09523000  0.59726000  1.0
  Mg0+  Mg3  1  0.93055000  0.09523000  0.09726000  1.0
  Mg0+  Mg4  1  0.40477000  0.56945000  0.59726000  1.0
  Mg0+  Mg5  1  0.09523000  0.56945000  0.09726000  1.0
  Mg0+  Mg6  1  0.40477000  0.93055000  0.09726000  1.0
  Mg0+  Mg7  1  0.09523000  0.93055000  0.59726000  1.0
  Mg0+  Mg8  1  0.43055000  0.59523000  0.90274000  1.0
  Mg0+  Mg9  1  0.06945000  0.59523000  0.40274000  1.0
  Mg0+  Mg10  1  0.43055000  0.90477000  0.40274000  1.0
  Mg0+  Mg11  1  0.06945000  0.90477000  0.90274000  1.0
  Mg0+  Mg12  1  0.59523000  0.43055000  0.40274000  1.0
  Mg0+  Mg13  1  0.90477000  0.43055000  0.90274000  1.0
  Mg0+  Mg14  1  0.59523000  0.06945000  0.90274000  1.0
  Mg0+  Mg15  1  0.90477000  0.06945000  0.40274000  1.0
  Al0+  Al16  1  0.75000000  0.75000000  0.21887000  1.0
  Al0+  Al17  1  0.75000000  0.75000000  0.71887000  1.0
  Al0+  Al18  1  0.25000000  0.25000000  0.78113000  1.0
  Al0+  Al19  1  0.25000000  0.25000000  0.28113000  1.0
  Si0+  Si20  1  0.75000000  0.75000000  0.01118000  1.0
  Si0+  Si21  1  0.75000000  0.75000000  0.51118000  1.0
  Si0+  Si22  1  0.25000000  0.25000000  0.98882000  1.0
  Si0+  Si23  1  0.25000000  0.25000000  0.48882000  1.0
  Si0+  Si24  1  0.37779000  0.62221000  0.25000000  1.0
  Si0+  Si25  1  0.12221000  0.62221000  0.75000000  1.0
  Si0+  Si26  1  0.37779000  0.87779000  0.75000000  1.0
  Si0+  Si27  1  0.12221000  0.87779000  0.25000000  1.0
  Si0+  Si28  1  0.62221000  0.37779000  0.75000000  1.0
  Si0+  Si29  1  0.87779000  0.37779000  0.25000000  1.0
  Si0+  Si30  1  0.62221000  0.12221000  0.25000000  1.0
  Si0+  Si31  1  0.87779000  0.12221000  0.75000000  1.0
