# generated using pymatgen
data_Y2C3
_symmetry_space_group_name_H-M   'P 1'
_cell_length_a   8.23780000
_cell_length_b   8.23780000
_cell_length_c   8.23780000
_cell_angle_alpha   90.00000000
_cell_angle_beta   90.00000000
_cell_angle_gamma   90.00000000
_symmetry_Int_Tables_number   1
_chemical_formula_structural   Y2C3
_chemical_formula_sum   'Y16 C24'
_cell_volume   559.02821947
_cell_formula_units_Z   8
loop_
 _symmetry_equiv_pos_site_id
 _symmetry_equiv_pos_as_xyz
  1  'x, y, z'
loop_
 _atom_type_symbol
 _atom_type_oxidation_number
  Y0+  0.0
  C0+  0.0
loop_
 _atom_site_type_symbol
 _atom_site_label
 _atom_site_symmetry_multiplicity
 _atom_site_fract_x
 _atom_site_fract_y
 _atom_site_fract_z
 _atom_site_occupancy
  Y0+  Y0  1  0.19900000  0.69900000  0.80100000  1.0
  Y0+  Y1  1  0.80100000  0.19900000  0.69900000  1.0
  Y0+  Y2  1  0.69900000  0.80100000  0.19900000  1.0
  Y0+  Y3  1  0.30100000  0.30100000  0.30100000  1.0
  Y0+  Y4  1  0.55100000  0.44900000  0.94900000  1.0
  Y0+  Y5  1  0.44900000  0.94900000  0.55100000  1.0
  Y0+  Y6  1  0.94900000  0.55100000  0.44900000  1.0
  Y0+  Y7  1  0.05100000  0.05100000  0.05100000  1.0
  Y0+  Y8  1  0.69900000  0.19900000  0.30100000  1.0
  Y0+  Y9  1  0.30100000  0.69900000  0.19900000  1.0
  Y0+  Y10  1  0.19900000  0.30100000  0.69900000  1.0
  Y0+  Y11  1  0.80100000  0.80100000  0.80100000  1.0
  Y0+  Y12  1  0.05100000  0.94900000  0.44900000  1.0
  Y0+  Y13  1  0.94900000  0.44900000  0.05100000  1.0
  Y0+  Y14  1  0.44900000  0.05100000  0.94900000  1.0
  Y0+  Y15  1  0.55100000  0.55100000  0.55100000  1.0
  C0+  C16  1  0.25000000  0.45400000  0.00000000  1.0
  C0+  C17  1  0.75000000  0.95400000  0.50000000  1.0
  C0+  C18  1  0.75000000  0.04600000  0.00000000  1.0
  C0+  C19  1  0.25000000  0.54600000  0.50000000  1.0
  C0+  C20  1  0.75000000  0.20400000  0.00000000  1.0
  C0+  C21  1  0.25000000  0.70400000  0.50000000  1.0
  C0+  C22  1  0.75000000  0.79600000  0.50000000  1.0
  C0+  C23  1  0.25000000  0.29600000  0.00000000  1.0
  C0+  C24  1  0.00000000  0.25000000  0.45400000  1.0
  C0+  C25  1  0.50000000  0.75000000  0.95400000  1.0
  C0+  C26  1  0.00000000  0.75000000  0.04600000  1.0
  C0+  C27  1  0.50000000  0.25000000  0.54600000  1.0
  C0+  C28  1  0.00000000  0.75000000  0.20400000  1.0
  C0+  C29  1  0.50000000  0.25000000  0.70400000  1.0
  C0+  C30  1  0.50000000  0.75000000  0.79600000  1.0
  C0+  C31  1  0.00000000  0.25000000  0.29600000  1.0
  C0+  C32  1  0.45400000  0.00000000  0.25000000  1.0
  C0+  C33  1  0.95400000  0.50000000  0.75000000  1.0
  C0+  C34  1  0.04600000  0.00000000  0.75000000  1.0
  C0+  C35  1  0.54600000  0.50000000  0.25000000  1.0
  C0+  C36  1  0.20400000  0.00000000  0.75000000  1.0
  C0+  C37  1  0.70400000  0.50000000  0.25000000  1.0
  C0+  C38  1  0.79600000  0.50000000  0.75000000  1.0
  C0+  C39  1  0.29600000  0.00000000  0.25000000  1.0
