# generated using pymatgen
data_Li2Si3Ir
_symmetry_space_group_name_H-M   'P 1'
_cell_length_a   5.01390000
_cell_length_b   5.01390000
_cell_length_c   7.83970000
_cell_angle_alpha   90.00000000
_cell_angle_beta   90.00000000
_cell_angle_gamma   120.00000000
_symmetry_Int_Tables_number   1
_chemical_formula_structural   Li2Si3Ir
_chemical_formula_sum   'Li4 Si6 Ir2'
_cell_volume   170.67951946
_cell_formula_units_Z   2
loop_
 _symmetry_equiv_pos_site_id
 _symmetry_equiv_pos_as_xyz
  1  'x, y, z'
loop_
 _atom_type_symbol
 _atom_type_oxidation_number
  Li0+  0.0
  Si0+  0.0
  Ir0+  0.0
loop_
 _atom_site_type_symbol
 _atom_site_label
 _atom_site_symmetry_multiplicity
 _atom_site_fract_x
 _atom_site_fract_y
 _atom_site_fract_z
 _atom_site_occupancy
  Li0+  Li0  1  0.66666667  0.33333333  0.55890000  1.0
  Li0+  Li1  1  0.33333333  0.66666667  0.05890000  1.0
  Li0+  Li2  1  0.33333333  0.66666667  0.44110000  1.0
  Li0+  Li3  1  0.66666667  0.33333333  0.94110000  1.0
  Si0+  Si4  1  0.18576000  0.83814000  0.74317000  1.0
  Si0+  Si5  1  0.16186000  0.34762000  0.74317000  1.0
  Si0+  Si6  1  0.65238000  0.81424000  0.74317000  1.0
  Si0+  Si7  1  0.83814000  0.18576000  0.24317000  1.0
  Si0+  Si8  1  0.34762000  0.16186000  0.24317000  1.0
  Si0+  Si9  1  0.81424000  0.65238000  0.24317000  1.0
  Ir0+  Ir10  1  0.00000000  0.00000000  0.50000000  1.0
  Ir0+  Ir11  1  0.00000000  0.00000000  0.00000000  1.0
