# generated using pymatgen
data_Y(Al10V)2
_symmetry_space_group_name_H-M   'P 1'
_cell_length_a   14.53780000
_cell_length_b   14.53780000
_cell_length_c   14.53780000
_cell_angle_alpha   90.00000000
_cell_angle_beta   90.00000000
_cell_angle_gamma   90.00000000
_symmetry_Int_Tables_number   1
_chemical_formula_structural   Y(Al10V)2
_chemical_formula_sum   'Y8 Al160 V16'
_cell_volume   3072.52955855
_cell_formula_units_Z   8
loop_
 _symmetry_equiv_pos_site_id
 _symmetry_equiv_pos_as_xyz
  1  'x, y, z'
loop_
 _atom_type_symbol
 _atom_type_oxidation_number
  Y0+  0.0
  Al0+  0.0
  V0+  0.0
loop_
 _atom_site_type_symbol
 _atom_site_label
 _atom_site_symmetry_multiplicity
 _atom_site_fract_x
 _atom_site_fract_y
 _atom_site_fract_z
 _atom_site_occupancy
  Y0+  Y0  1  0.87500000  0.87500000  0.87500000  1.0
  Y0+  Y1  1  0.12500000  0.12500000  0.12500000  1.0
  Y0+  Y2  1  0.87500000  0.37500000  0.37500000  1.0
  Y0+  Y3  1  0.12500000  0.62500000  0.62500000  1.0
  Y0+  Y4  1  0.37500000  0.87500000  0.37500000  1.0
  Y0+  Y5  1  0.62500000  0.12500000  0.62500000  1.0
  Y0+  Y6  1  0.37500000  0.37500000  0.87500000  1.0
  Y0+  Y7  1  0.62500000  0.62500000  0.12500000  1.0
  Al0+  Al8  1  0.00000000  0.75000000  0.75000000  1.0
  Al0+  Al9  1  0.75000000  0.00000000  0.75000000  1.0
  Al0+  Al10  1  0.75000000  0.75000000  0.00000000  1.0
  Al0+  Al11  1  0.00000000  0.00000000  0.00000000  1.0
  Al0+  Al12  1  0.00000000  0.25000000  0.25000000  1.0
  Al0+  Al13  1  0.25000000  0.00000000  0.25000000  1.0
  Al0+  Al14  1  0.25000000  0.25000000  0.00000000  1.0
  Al0+  Al15  1  0.75000000  0.50000000  0.25000000  1.0
  Al0+  Al16  1  0.75000000  0.25000000  0.50000000  1.0
  Al0+  Al17  1  0.00000000  0.50000000  0.50000000  1.0
  Al0+  Al18  1  0.25000000  0.50000000  0.75000000  1.0
  Al0+  Al19  1  0.25000000  0.75000000  0.50000000  1.0
  Al0+  Al20  1  0.50000000  0.75000000  0.25000000  1.0
  Al0+  Al21  1  0.50000000  0.00000000  0.50000000  1.0
  Al0+  Al22  1  0.50000000  0.25000000  0.75000000  1.0
  Al0+  Al23  1  0.50000000  0.50000000  0.00000000  1.0
  Al0+  Al24  1  0.87500000  0.87500000  0.23610000  1.0
  Al0+  Al25  1  0.87500000  0.87500000  0.51390000  1.0
  Al0+  Al26  1  0.87500000  0.23610000  0.87500000  1.0
  Al0+  Al27  1  0.87500000  0.51390000  0.87500000  1.0
  Al0+  Al28  1  0.23610000  0.87500000  0.87500000  1.0
  Al0+  Al29  1  0.51390000  0.87500000  0.87500000  1.0
  Al0+  Al30  1  0.12500000  0.12500000  0.76390000  1.0
  Al0+  Al31  1  0.12500000  0.12500000  0.48610000  1.0
  Al0+  Al32  1  0.12500000  0.76390000  0.12500000  1.0
  Al0+  Al33  1  0.12500000  0.48610000  0.12500000  1.0
  Al0+  Al34  1  0.76390000  0.12500000  0.12500000  1.0
  Al0+  Al35  1  0.48610000  0.12500000  0.12500000  1.0
  Al0+  Al36  1  0.87500000  0.37500000  0.73610000  1.0
  Al0+  Al37  1  0.87500000  0.37500000  0.01390000  1.0
  Al0+  Al38  1  0.87500000  0.73610000  0.37500000  1.0
  Al0+  Al39  1  0.87500000  0.01390000  0.37500000  1.0
  Al0+  Al40  1  0.23610000  0.37500000  0.37500000  1.0
  Al0+  Al41  1  0.51390000  0.37500000  0.37500000  1.0
  Al0+  Al42  1  0.12500000  0.62500000  0.26390000  1.0
  Al0+  Al43  1  0.12500000  0.62500000  0.98610000  1.0
  Al0+  Al44  1  0.12500000  0.26390000  0.62500000  1.0
  Al0+  Al45  1  0.12500000  0.98610000  0.62500000  1.0
  Al0+  Al46  1  0.76390000  0.62500000  0.62500000  1.0
  Al0+  Al47  1  0.48610000  0.62500000  0.62500000  1.0
  Al0+  Al48  1  0.37500000  0.87500000  0.73610000  1.0
  Al0+  Al49  1  0.37500000  0.87500000  0.01390000  1.0
  Al0+  Al50  1  0.37500000  0.23610000  0.37500000  1.0
  Al0+  Al51  1  0.37500000  0.51390000  0.37500000  1.0
  Al0+  Al52  1  0.73610000  0.87500000  0.37500000  1.0
  Al0+  Al53  1  0.01390000  0.87500000  0.37500000  1.0
  Al0+  Al54  1  0.62500000  0.12500000  0.26390000  1.0
  Al0+  Al55  1  0.62500000  0.12500000  0.98610000  1.0
  Al0+  Al56  1  0.62500000  0.76390000  0.62500000  1.0
  Al0+  Al57  1  0.62500000  0.48610000  0.62500000  1.0
  Al0+  Al58  1  0.26390000  0.12500000  0.62500000  1.0
  Al0+  Al59  1  0.98610000  0.12500000  0.62500000  1.0
  Al0+  Al60  1  0.37500000  0.37500000  0.23610000  1.0
  Al0+  Al61  1  0.37500000  0.37500000  0.51390000  1.0
  Al0+  Al62  1  0.37500000  0.73610000  0.87500000  1.0
  Al0+  Al63  1  0.37500000  0.01390000  0.87500000  1.0
  Al0+  Al64  1  0.73610000  0.37500000  0.87500000  1.0
  Al0+  Al65  1  0.01390000  0.37500000  0.87500000  1.0
  Al0+  Al66  1  0.62500000  0.62500000  0.76390000  1.0
  Al0+  Al67  1  0.62500000  0.62500000  0.48610000  1.0
  Al0+  Al68  1  0.62500000  0.26390000  0.12500000  1.0
  Al0+  Al69  1  0.62500000  0.98610000  0.12500000  1.0
  Al0+  Al70  1  0.26390000  0.62500000  0.12500000  1.0
  Al0+  Al71  1  0.98610000  0.62500000  0.12500000  1.0
  Al0+  Al72  1  0.67490000  0.80950000  0.80950000  1.0
  Al0+  Al73  1  0.07510000  0.94050000  0.80950000  1.0
  Al0+  Al74  1  0.07510000  0.80950000  0.94050000  1.0
  Al0+  Al75  1  0.67490000  0.94050000  0.94050000  1.0
  Al0+  Al76  1  0.80950000  0.80950000  0.67490000  1.0
  Al0+  Al77  1  0.94050000  0.80950000  0.07510000  1.0
  Al0+  Al78  1  0.80950000  0.94050000  0.07510000  1.0
  Al0+  Al79  1  0.94050000  0.94050000  0.67490000  1.0
  Al0+  Al80  1  0.80950000  0.67490000  0.80950000  1.0
  Al0+  Al81  1  0.80950000  0.07510000  0.94050000  1.0
  Al0+  Al82  1  0.94050000  0.07510000  0.80950000  1.0
  Al0+  Al83  1  0.94050000  0.67490000  0.94050000  1.0
  Al0+  Al84  1  0.32510000  0.19050000  0.19050000  1.0
  Al0+  Al85  1  0.92490000  0.05950000  0.19050000  1.0
  Al0+  Al86  1  0.92490000  0.19050000  0.05950000  1.0
  Al0+  Al87  1  0.32510000  0.05950000  0.05950000  1.0
  Al0+  Al88  1  0.19050000  0.19050000  0.32510000  1.0
  Al0+  Al89  1  0.05950000  0.19050000  0.92490000  1.0
  Al0+  Al90  1  0.19050000  0.05950000  0.92490000  1.0
  Al0+  Al91  1  0.05950000  0.05950000  0.32510000  1.0
  Al0+  Al92  1  0.19050000  0.32510000  0.19050000  1.0
  Al0+  Al93  1  0.19050000  0.92490000  0.05950000  1.0
  Al0+  Al94  1  0.05950000  0.92490000  0.19050000  1.0
  Al0+  Al95  1  0.05950000  0.32510000  0.05950000  1.0
  Al0+  Al96  1  0.67490000  0.30950000  0.30950000  1.0
  Al0+  Al97  1  0.07510000  0.44050000  0.30950000  1.0
  Al0+  Al98  1  0.07510000  0.30950000  0.44050000  1.0
  Al0+  Al99  1  0.67490000  0.44050000  0.44050000  1.0
  Al0+  Al100  1  0.80950000  0.30950000  0.17490000  1.0
  Al0+  Al101  1  0.94050000  0.30950000  0.57510000  1.0
  Al0+  Al102  1  0.80950000  0.44050000  0.57510000  1.0
  Al0+  Al103  1  0.94050000  0.44050000  0.17490000  1.0
  Al0+  Al104  1  0.80950000  0.17490000  0.30950000  1.0
  Al0+  Al105  1  0.80950000  0.57510000  0.44050000  1.0
  Al0+  Al106  1  0.94050000  0.57510000  0.30950000  1.0
  Al0+  Al107  1  0.94050000  0.17490000  0.44050000  1.0
  Al0+  Al108  1  0.32510000  0.69050000  0.69050000  1.0
  Al0+  Al109  1  0.92490000  0.55950000  0.69050000  1.0
  Al0+  Al110  1  0.92490000  0.69050000  0.55950000  1.0
  Al0+  Al111  1  0.32510000  0.55950000  0.55950000  1.0
  Al0+  Al112  1  0.19050000  0.69050000  0.82510000  1.0
  Al0+  Al113  1  0.05950000  0.69050000  0.42490000  1.0
  Al0+  Al114  1  0.19050000  0.55950000  0.42490000  1.0
  Al0+  Al115  1  0.05950000  0.55950000  0.82510000  1.0
  Al0+  Al116  1  0.19050000  0.82510000  0.69050000  1.0
  Al0+  Al117  1  0.19050000  0.42490000  0.55950000  1.0
  Al0+  Al118  1  0.05950000  0.42490000  0.69050000  1.0
  Al0+  Al119  1  0.05950000  0.82510000  0.55950000  1.0
  Al0+  Al120  1  0.17490000  0.80950000  0.30950000  1.0
  Al0+  Al121  1  0.57510000  0.94050000  0.30950000  1.0
  Al0+  Al122  1  0.57510000  0.80950000  0.44050000  1.0
  Al0+  Al123  1  0.17490000  0.94050000  0.44050000  1.0
  Al0+  Al124  1  0.30950000  0.80950000  0.17490000  1.0
  Al0+  Al125  1  0.44050000  0.80950000  0.57510000  1.0
  Al0+  Al126  1  0.30950000  0.94050000  0.57510000  1.0
  Al0+  Al127  1  0.44050000  0.94050000  0.17490000  1.0
  Al0+  Al128  1  0.30950000  0.67490000  0.30950000  1.0
  Al0+  Al129  1  0.30950000  0.07510000  0.44050000  1.0
  Al0+  Al130  1  0.44050000  0.07510000  0.30950000  1.0
  Al0+  Al131  1  0.44050000  0.67490000  0.44050000  1.0
  Al0+  Al132  1  0.82510000  0.19050000  0.69050000  1.0
  Al0+  Al133  1  0.42490000  0.05950000  0.69050000  1.0
  Al0+  Al134  1  0.42490000  0.19050000  0.55950000  1.0
  Al0+  Al135  1  0.82510000  0.05950000  0.55950000  1.0
  Al0+  Al136  1  0.69050000  0.19050000  0.82510000  1.0
  Al0+  Al137  1  0.55950000  0.19050000  0.42490000  1.0
  Al0+  Al138  1  0.69050000  0.05950000  0.42490000  1.0
  Al0+  Al139  1  0.55950000  0.05950000  0.82510000  1.0
  Al0+  Al140  1  0.69050000  0.32510000  0.69050000  1.0
  Al0+  Al141  1  0.69050000  0.92490000  0.55950000  1.0
  Al0+  Al142  1  0.55950000  0.92490000  0.69050000  1.0
  Al0+  Al143  1  0.55950000  0.32510000  0.55950000  1.0
  Al0+  Al144  1  0.17490000  0.30950000  0.80950000  1.0
  Al0+  Al145  1  0.57510000  0.44050000  0.80950000  1.0
  Al0+  Al146  1  0.57510000  0.30950000  0.94050000  1.0
  Al0+  Al147  1  0.17490000  0.44050000  0.94050000  1.0
  Al0+  Al148  1  0.30950000  0.30950000  0.67490000  1.0
  Al0+  Al149  1  0.44050000  0.30950000  0.07510000  1.0
  Al0+  Al150  1  0.30950000  0.44050000  0.07510000  1.0
  Al0+  Al151  1  0.44050000  0.44050000  0.67490000  1.0
  Al0+  Al152  1  0.30950000  0.17490000  0.80950000  1.0
  Al0+  Al153  1  0.30950000  0.57510000  0.94050000  1.0
  Al0+  Al154  1  0.44050000  0.57510000  0.80950000  1.0
  Al0+  Al155  1  0.44050000  0.17490000  0.94050000  1.0
  Al0+  Al156  1  0.82510000  0.69050000  0.19050000  1.0
  Al0+  Al157  1  0.42490000  0.55950000  0.19050000  1.0
  Al0+  Al158  1  0.42490000  0.69050000  0.05950000  1.0
  Al0+  Al159  1  0.82510000  0.55950000  0.05950000  1.0
  Al0+  Al160  1  0.69050000  0.69050000  0.32510000  1.0
  Al0+  Al161  1  0.55950000  0.69050000  0.92490000  1.0
  Al0+  Al162  1  0.69050000  0.55950000  0.92490000  1.0
  Al0+  Al163  1  0.55950000  0.55950000  0.32510000  1.0
  Al0+  Al164  1  0.69050000  0.82510000  0.19050000  1.0
  Al0+  Al165  1  0.69050000  0.42490000  0.05950000  1.0
  Al0+  Al166  1  0.55950000  0.42490000  0.19050000  1.0
  Al0+  Al167  1  0.55950000  0.82510000  0.05950000  1.0
  V0+  V168  1  0.50000000  0.25000000  0.25000000  1.0
  V0+  V169  1  0.25000000  0.50000000  0.25000000  1.0
  V0+  V170  1  0.25000000  0.25000000  0.50000000  1.0
  V0+  V171  1  0.50000000  0.50000000  0.50000000  1.0
  V0+  V172  1  0.50000000  0.75000000  0.75000000  1.0
  V0+  V173  1  0.75000000  0.50000000  0.75000000  1.0
  V0+  V174  1  0.75000000  0.75000000  0.50000000  1.0
  V0+  V175  1  0.25000000  0.00000000  0.75000000  1.0
  V0+  V176  1  0.25000000  0.75000000  0.00000000  1.0
  V0+  V177  1  0.50000000  0.00000000  0.00000000  1.0
  V0+  V178  1  0.75000000  0.00000000  0.25000000  1.0
  V0+  V179  1  0.75000000  0.25000000  0.00000000  1.0
  V0+  V180  1  0.00000000  0.25000000  0.75000000  1.0
  V0+  V181  1  0.00000000  0.50000000  0.00000000  1.0
  V0+  V182  1  0.00000000  0.75000000  0.25000000  1.0
  V0+  V183  1  0.00000000  0.00000000  0.50000000  1.0
