# generated using pymatgen
data_BaGe3
_symmetry_space_group_name_H-M   'P 1'
_cell_length_a   6.81400000
_cell_length_b   6.81400000
_cell_length_c   5.02700000
_cell_angle_alpha   90.00000000
_cell_angle_beta   90.00000000
_cell_angle_gamma   120.00000000
_symmetry_Int_Tables_number   1
_chemical_formula_structural   BaGe3
_chemical_formula_sum   'Ba2 Ge6'
_cell_volume   202.13605029
_cell_formula_units_Z   2
loop_
 _symmetry_equiv_pos_site_id
 _symmetry_equiv_pos_as_xyz
  1  'x, y, z'
loop_
 _atom_type_symbol
 _atom_type_oxidation_number
  Ba2+  2.0
  Ge0.67-  -0.67
loop_
 _atom_site_type_symbol
 _atom_site_label
 _atom_site_symmetry_multiplicity
 _atom_site_fract_x
 _atom_site_fract_y
 _atom_site_fract_z
 _atom_site_occupancy
  Ba2+  Ba0  1  0.66666667  0.33333333  0.25000000  1.0
  Ba2+  Ba1  1  0.33333333  0.66666667  0.75000000  1.0
  Ge0.67-  Ge2  1  0.12783000  0.87216000  0.25000000  1.0
  Ge0.67-  Ge3  1  0.12784000  0.25567000  0.25000000  1.0
  Ge0.67-  Ge4  1  0.74433000  0.87217000  0.25000000  1.0
  Ge0.67-  Ge5  1  0.87217000  0.12784000  0.75000000  1.0
  Ge0.67-  Ge6  1  0.87216000  0.74433000  0.75000000  1.0
  Ge0.67-  Ge7  1  0.25567000  0.12783000  0.75000000  1.0
