# generated using pymatgen
data_CaNiBN
_symmetry_space_group_name_H-M   'P 1'
_cell_length_a   3.54000000
_cell_length_b   3.54000000
_cell_length_c   7.63770000
_cell_angle_alpha   90.00000000
_cell_angle_beta   90.00000000
_cell_angle_gamma   90.00000000
_symmetry_Int_Tables_number   1
_chemical_formula_structural   CaNiBN
_chemical_formula_sum   'Ca2 Ni2 B2 N2'
_cell_volume   95.71260132
_cell_formula_units_Z   2
loop_
 _symmetry_equiv_pos_site_id
 _symmetry_equiv_pos_as_xyz
  1  'x, y, z'
loop_
 _atom_type_symbol
 _atom_type_oxidation_number
  Ca0+  0.0
  Ni0+  0.0
  B0+  0.0
  N0+  0.0
loop_
 _atom_site_type_symbol
 _atom_site_label
 _atom_site_symmetry_multiplicity
 _atom_site_fract_x
 _atom_site_fract_y
 _atom_site_fract_z
 _atom_site_occupancy
  Ca0+  Ca0  1  0.00000000  0.50000000  0.34170000  1.0
  Ca0+  Ca1  1  0.50000000  0.00000000  0.65830000  1.0
  Ni0+  Ni2  1  0.00000000  0.00000000  0.00000000  1.0
  Ni0+  Ni3  1  0.50000000  0.50000000  0.00000000  1.0
  B0+  B4  1  0.00000000  0.50000000  0.84529000  1.0
  B0+  B5  1  0.50000000  0.00000000  0.15471000  1.0
  N0+  N6  1  0.00000000  0.50000000  0.66335000  1.0
  N0+  N7  1  0.50000000  0.00000000  0.33665000  1.0
