# generated using pymatgen
data_Nb4N5
_symmetry_space_group_name_H-M   'P 1'
_cell_length_a   6.87300000
_cell_length_b   6.87300000
_cell_length_c   4.29800000
_cell_angle_alpha   90.00000000
_cell_angle_beta   90.00000000
_cell_angle_gamma   90.00000000
_symmetry_Int_Tables_number   1
_chemical_formula_structural   Nb4N5
_chemical_formula_sum   'Nb8 N10'
_cell_volume   203.02947844
_cell_formula_units_Z   2
loop_
 _symmetry_equiv_pos_site_id
 _symmetry_equiv_pos_as_xyz
  1  'x, y, z'
loop_
 _atom_type_symbol
 _atom_type_oxidation_number
  Nb3.75+  3.75
  N3-  -3.0
loop_
 _atom_site_type_symbol
 _atom_site_label
 _atom_site_symmetry_multiplicity
 _atom_site_fract_x
 _atom_site_fract_y
 _atom_site_fract_z
 _atom_site_occupancy
  Nb3.75+  Nb0  1  0.80000000  0.40000000  0.00000000  1.0
  Nb3.75+  Nb1  1  0.20000000  0.60000000  0.00000000  1.0
  Nb3.75+  Nb2  1  0.40000000  0.20000000  0.00000000  1.0
  Nb3.75+  Nb3  1  0.60000000  0.80000000  0.00000000  1.0
  Nb3.75+  Nb4  1  0.30000000  0.90000000  0.50000000  1.0
  Nb3.75+  Nb5  1  0.70000000  0.10000000  0.50000000  1.0
  Nb3.75+  Nb6  1  0.90000000  0.70000000  0.50000000  1.0
  Nb3.75+  Nb7  1  0.10000000  0.30000000  0.50000000  1.0
  N3-  N8  1  0.70000000  0.10000000  0.00000000  1.0
  N3-  N9  1  0.30000000  0.90000000  0.00000000  1.0
  N3-  N10  1  0.10000000  0.30000000  0.00000000  1.0
  N3-  N11  1  0.90000000  0.70000000  0.00000000  1.0
  N3-  N12  1  0.20000000  0.60000000  0.50000000  1.0
  N3-  N13  1  0.80000000  0.40000000  0.50000000  1.0
  N3-  N14  1  0.60000000  0.80000000  0.50000000  1.0
  N3-  N15  1  0.40000000  0.20000000  0.50000000  1.0
  N3-  N16  1  0.00000000  0.00000000  0.50000000  1.0
  N3-  N17  1  0.50000000  0.50000000  0.00000000  1.0
