# generated using pymatgen
data_CaGe3
_symmetry_space_group_name_H-M   'P 1'
_cell_length_a   7.69200000
_cell_length_b   7.69200000
_cell_length_c   11.33140000
_cell_angle_alpha   90.00000000
_cell_angle_beta   90.00000000
_cell_angle_gamma   90.00000000
_symmetry_Int_Tables_number   1
_chemical_formula_structural   CaGe3
_chemical_formula_sum   'Ca8 Ge24'
_cell_volume   670.44340273
_cell_formula_units_Z   8
loop_
 _symmetry_equiv_pos_site_id
 _symmetry_equiv_pos_as_xyz
  1  'x, y, z'
loop_
 _atom_type_symbol
 _atom_type_oxidation_number
  Ca2+  2.0
  Ge0.67-  -0.67
loop_
 _atom_site_type_symbol
 _atom_site_label
 _atom_site_symmetry_multiplicity
 _atom_site_fract_x
 _atom_site_fract_y
 _atom_site_fract_z
 _atom_site_occupancy
  Ca2+  Ca0  1  0.00000000  0.00000000  0.83450000  1.0
  Ca2+  Ca1  1  0.00000000  0.00000000  0.16550000  1.0
  Ca2+  Ca2  1  0.50000000  0.50000000  0.33450000  1.0
  Ca2+  Ca3  1  0.50000000  0.50000000  0.66550000  1.0
  Ca2+  Ca4  1  0.00000000  0.50000000  0.75000000  1.0
  Ca2+  Ca5  1  0.50000000  0.00000000  0.75000000  1.0
  Ca2+  Ca6  1  0.00000000  0.50000000  0.25000000  1.0
  Ca2+  Ca7  1  0.50000000  0.00000000  0.25000000  1.0
  Ge0.67-  Ge8  1  0.00000000  0.33430000  0.00000000  1.0
  Ge0.67-  Ge9  1  0.00000000  0.66570000  0.00000000  1.0
  Ge0.67-  Ge10  1  0.66570000  0.00000000  0.00000000  1.0
  Ge0.67-  Ge11  1  0.33430000  0.00000000  0.00000000  1.0
  Ge0.67-  Ge12  1  0.50000000  0.83430000  0.50000000  1.0
  Ge0.67-  Ge13  1  0.50000000  0.16570000  0.50000000  1.0
  Ge0.67-  Ge14  1  0.16570000  0.50000000  0.50000000  1.0
  Ge0.67-  Ge15  1  0.83430000  0.50000000  0.50000000  1.0
  Ge0.67-  Ge16  1  0.31649000  0.31649000  0.88530000  1.0
  Ge0.67-  Ge17  1  0.68351000  0.68351000  0.88530000  1.0
  Ge0.67-  Ge18  1  0.68351000  0.31649000  0.88530000  1.0
  Ge0.67-  Ge19  1  0.31649000  0.68351000  0.88530000  1.0
  Ge0.67-  Ge20  1  0.68351000  0.68351000  0.11470000  1.0
  Ge0.67-  Ge21  1  0.31649000  0.31649000  0.11470000  1.0
  Ge0.67-  Ge22  1  0.31649000  0.68351000  0.11470000  1.0
  Ge0.67-  Ge23  1  0.68351000  0.31649000  0.11470000  1.0
  Ge0.67-  Ge24  1  0.81649000  0.81649000  0.38530000  1.0
  Ge0.67-  Ge25  1  0.18351000  0.18351000  0.38530000  1.0
  Ge0.67-  Ge26  1  0.18351000  0.81649000  0.38530000  1.0
  Ge0.67-  Ge27  1  0.81649000  0.18351000  0.38530000  1.0
  Ge0.67-  Ge28  1  0.18351000  0.18351000  0.61470000  1.0
  Ge0.67-  Ge29  1  0.81649000  0.81649000  0.61470000  1.0
  Ge0.67-  Ge30  1  0.81649000  0.18351000  0.61470000  1.0
  Ge0.67-  Ge31  1  0.18351000  0.81649000  0.61470000  1.0
