# generated using pymatgen
data_Pb3Au
_symmetry_space_group_name_H-M   'P 1'
_cell_length_a   11.98000000
_cell_length_b   11.98000000
_cell_length_c   5.89000000
_cell_angle_alpha   90.00000000
_cell_angle_beta   90.00000000
_cell_angle_gamma   90.00000000
_symmetry_Int_Tables_number   1
_chemical_formula_structural   Pb3Au
_chemical_formula_sum   'Pb24 Au8'
_cell_volume   845.33515600
_cell_formula_units_Z   8
loop_
 _symmetry_equiv_pos_site_id
 _symmetry_equiv_pos_as_xyz
  1  'x, y, z'
loop_
 _atom_type_symbol
 _atom_type_oxidation_number
  Pb0+  0.0
  Au0+  0.0
loop_
 _atom_site_type_symbol
 _atom_site_label
 _atom_site_symmetry_multiplicity
 _atom_site_fract_x
 _atom_site_fract_y
 _atom_site_fract_z
 _atom_site_occupancy
  Pb0+  Pb0  1  0.90700000  0.90700000  0.75000000  1.0
  Pb0+  Pb1  1  0.09300000  0.09300000  0.75000000  1.0
  Pb0+  Pb2  1  0.09300000  0.90700000  0.25000000  1.0
  Pb0+  Pb3  1  0.90700000  0.09300000  0.25000000  1.0
  Pb0+  Pb4  1  0.40700000  0.40700000  0.25000000  1.0
  Pb0+  Pb5  1  0.59300000  0.59300000  0.25000000  1.0
  Pb0+  Pb6  1  0.59300000  0.40700000  0.75000000  1.0
  Pb0+  Pb7  1  0.40700000  0.59300000  0.75000000  1.0
  Pb0+  Pb8  1  0.80000000  0.80000000  0.25000000  1.0
  Pb0+  Pb9  1  0.20000000  0.20000000  0.25000000  1.0
  Pb0+  Pb10  1  0.20000000  0.80000000  0.75000000  1.0
  Pb0+  Pb11  1  0.80000000  0.20000000  0.75000000  1.0
  Pb0+  Pb12  1  0.30000000  0.30000000  0.75000000  1.0
  Pb0+  Pb13  1  0.70000000  0.70000000  0.75000000  1.0
  Pb0+  Pb14  1  0.70000000  0.30000000  0.25000000  1.0
  Pb0+  Pb15  1  0.30000000  0.70000000  0.25000000  1.0
  Pb0+  Pb16  1  0.00000000  0.64500000  0.00000000  1.0
  Pb0+  Pb17  1  0.00000000  0.35500000  0.00000000  1.0
  Pb0+  Pb18  1  0.35500000  0.00000000  0.00000000  1.0
  Pb0+  Pb19  1  0.64500000  0.00000000  0.00000000  1.0
  Pb0+  Pb20  1  0.50000000  0.14500000  0.50000000  1.0
  Pb0+  Pb21  1  0.50000000  0.85500000  0.50000000  1.0
  Pb0+  Pb22  1  0.85500000  0.50000000  0.50000000  1.0
  Pb0+  Pb23  1  0.14500000  0.50000000  0.50000000  1.0
  Au0+  Au24  1  0.00000000  0.71500000  0.50000000  1.0
  Au0+  Au25  1  0.00000000  0.28500000  0.50000000  1.0
  Au0+  Au26  1  0.28500000  0.00000000  0.50000000  1.0
  Au0+  Au27  1  0.71500000  0.00000000  0.50000000  1.0
  Au0+  Au28  1  0.50000000  0.21500000  0.00000000  1.0
  Au0+  Au29  1  0.50000000  0.78500000  0.00000000  1.0
  Au0+  Au30  1  0.78500000  0.50000000  0.00000000  1.0
  Au0+  Au31  1  0.21500000  0.50000000  0.00000000  1.0
