# generated using pymatgen
data_CaSi3
_symmetry_space_group_name_H-M   'P 1'
_cell_length_a   7.26760000
_cell_length_b   7.26760000
_cell_length_c   11.35010000
_cell_angle_alpha   90.00000000
_cell_angle_beta   90.00000000
_cell_angle_gamma   90.00000000
_symmetry_Int_Tables_number   1
_chemical_formula_structural   CaSi3
_chemical_formula_sum   'Ca8 Si24'
_cell_volume   599.48969258
_cell_formula_units_Z   8
loop_
 _symmetry_equiv_pos_site_id
 _symmetry_equiv_pos_as_xyz
  1  'x, y, z'
loop_
 _atom_type_symbol
 _atom_type_oxidation_number
  Ca0+  0.0
  Si0+  0.0
loop_
 _atom_site_type_symbol
 _atom_site_label
 _atom_site_symmetry_multiplicity
 _atom_site_fract_x
 _atom_site_fract_y
 _atom_site_fract_z
 _atom_site_occupancy
  Ca0+  Ca0  1  0.00000000  0.00000000  0.82616000  1.0
  Ca0+  Ca1  1  0.00000000  0.00000000  0.17384000  1.0
  Ca0+  Ca2  1  0.50000000  0.50000000  0.32616000  1.0
  Ca0+  Ca3  1  0.50000000  0.50000000  0.67384000  1.0
  Ca0+  Ca4  1  0.00000000  0.50000000  0.75000000  1.0
  Ca0+  Ca5  1  0.50000000  0.00000000  0.75000000  1.0
  Ca0+  Ca6  1  0.00000000  0.50000000  0.25000000  1.0
  Ca0+  Ca7  1  0.50000000  0.00000000  0.25000000  1.0
  Si0+  Si8  1  0.00000000  0.33560000  0.00000000  1.0
  Si0+  Si9  1  0.00000000  0.66440000  0.00000000  1.0
  Si0+  Si10  1  0.66440000  0.00000000  0.00000000  1.0
  Si0+  Si11  1  0.33560000  0.00000000  0.00000000  1.0
  Si0+  Si12  1  0.50000000  0.83560000  0.50000000  1.0
  Si0+  Si13  1  0.50000000  0.16440000  0.50000000  1.0
  Si0+  Si14  1  0.16440000  0.50000000  0.50000000  1.0
  Si0+  Si15  1  0.83560000  0.50000000  0.50000000  1.0
  Si0+  Si16  1  0.31399000  0.31399000  0.89411000  1.0
  Si0+  Si17  1  0.68601000  0.68601000  0.89411000  1.0
  Si0+  Si18  1  0.68601000  0.31399000  0.89411000  1.0
  Si0+  Si19  1  0.31399000  0.68601000  0.89411000  1.0
  Si0+  Si20  1  0.68601000  0.68601000  0.10589000  1.0
  Si0+  Si21  1  0.31399000  0.31399000  0.10589000  1.0
  Si0+  Si22  1  0.31399000  0.68601000  0.10589000  1.0
  Si0+  Si23  1  0.68601000  0.31399000  0.10589000  1.0
  Si0+  Si24  1  0.81399000  0.81399000  0.39411000  1.0
  Si0+  Si25  1  0.18601000  0.18601000  0.39411000  1.0
  Si0+  Si26  1  0.18601000  0.81399000  0.39411000  1.0
  Si0+  Si27  1  0.81399000  0.18601000  0.39411000  1.0
  Si0+  Si28  1  0.18601000  0.18601000  0.60589000  1.0
  Si0+  Si29  1  0.81399000  0.81399000  0.60589000  1.0
  Si0+  Si30  1  0.81399000  0.18601000  0.60589000  1.0
  Si0+  Si31  1  0.18601000  0.81399000  0.60589000  1.0
