# generated using pymatgen
data_CeBiS2O
_symmetry_space_group_name_H-M   'P 1'
_cell_length_a   4.01002000
_cell_length_b   4.01002000
_cell_length_c   13.56020000
_cell_angle_alpha   90.00000000
_cell_angle_beta   90.00000000
_cell_angle_gamma   90.00000000
_symmetry_Int_Tables_number   1
_chemical_formula_structural   CeBiS2O
_chemical_formula_sum   'Ce2 Bi2 S4 O2'
_cell_volume   218.05154708
_cell_formula_units_Z   2
loop_
 _symmetry_equiv_pos_site_id
 _symmetry_equiv_pos_as_xyz
  1  'x, y, z'
loop_
 _atom_type_symbol
 _atom_type_oxidation_number
  Ce3+  3.0
  Bi3+  3.0
  S2-  -2.0
  O2-  -2.0
loop_
 _atom_site_type_symbol
 _atom_site_label
 _atom_site_symmetry_multiplicity
 _atom_site_fract_x
 _atom_site_fract_y
 _atom_site_fract_z
 _atom_site_occupancy
  Ce3+  Ce0  1  0.75000000  0.75000000  0.09230000  1.0
  Ce3+  Ce1  1  0.25000000  0.25000000  0.90770000  1.0
  Bi3+  Bi2  1  0.75000000  0.75000000  0.62700000  1.0
  Bi3+  Bi3  1  0.25000000  0.25000000  0.37300000  1.0
  S2-  S4  1  0.75000000  0.75000000  0.38020000  1.0
  S2-  S5  1  0.25000000  0.25000000  0.61980000  1.0
  S2-  S6  1  0.75000000  0.75000000  0.81340000  1.0
  S2-  S7  1  0.25000000  0.25000000  0.18660000  1.0
  O2-  O8  1  0.75000000  0.25000000  0.00000000  1.0
  O2-  O9  1  0.25000000  0.75000000  0.00000000  1.0
