# generated using pymatgen
data_Te2Rh
_symmetry_space_group_name_H-M   'P 1'
_cell_length_a   6.44100000
_cell_length_b   6.44100000
_cell_length_c   6.44100000
_cell_angle_alpha   90.00000000
_cell_angle_beta   90.00000000
_cell_angle_gamma   90.00000000
_symmetry_Int_Tables_number   1
_chemical_formula_structural   Te2Rh
_chemical_formula_sum   'Te8 Rh4'
_cell_volume   267.21442412
_cell_formula_units_Z   4
loop_
 _symmetry_equiv_pos_site_id
 _symmetry_equiv_pos_as_xyz
  1  'x, y, z'
loop_
 _atom_type_symbol
 _atom_type_oxidation_number
  Te1.5-  -1.5
  Rh3+  3.0
loop_
 _atom_site_type_symbol
 _atom_site_label
 _atom_site_symmetry_multiplicity
 _atom_site_fract_x
 _atom_site_fract_y
 _atom_site_fract_z
 _atom_site_occupancy
  Te1.5-  Te0  1  0.13800000  0.86200000  0.36200000  1.0
  Te1.5-  Te1  1  0.86200000  0.36200000  0.13800000  1.0
  Te1.5-  Te2  1  0.36200000  0.13800000  0.86200000  1.0
  Te1.5-  Te3  1  0.63800000  0.63800000  0.63800000  1.0
  Te1.5-  Te4  1  0.86200000  0.13800000  0.63800000  1.0
  Te1.5-  Te5  1  0.13800000  0.63800000  0.86200000  1.0
  Te1.5-  Te6  1  0.63800000  0.86200000  0.13800000  1.0
  Te1.5-  Te7  1  0.36200000  0.36200000  0.36200000  1.0
  Rh3+  Rh8  1  0.50000000  0.50000000  0.00000000  1.0
  Rh3+  Rh9  1  0.50000000  0.00000000  0.50000000  1.0
  Rh3+  Rh10  1  0.00000000  0.50000000  0.50000000  1.0
  Rh3+  Rh11  1  0.00000000  0.00000000  0.00000000  1.0
