# generated using pymatgen
data_Li(CuP)2
_symmetry_space_group_name_H-M   'P 1'
_cell_length_a   3.88700000
_cell_length_b   3.88700000
_cell_length_c   9.55000000
_cell_angle_alpha   90.00000000
_cell_angle_beta   90.00000000
_cell_angle_gamma   90.00000000
_symmetry_Int_Tables_number   1
_chemical_formula_structural   Li(CuP)2
_chemical_formula_sum   'Li2 Cu4 P4'
_cell_volume   144.28874395
_cell_formula_units_Z   2
loop_
 _symmetry_equiv_pos_site_id
 _symmetry_equiv_pos_as_xyz
  1  'x, y, z'
loop_
 _atom_type_symbol
 _atom_type_oxidation_number
  Li0+  0.0
  Cu0+  0.0
  P0+  0.0
loop_
 _atom_site_type_symbol
 _atom_site_label
 _atom_site_symmetry_multiplicity
 _atom_site_fract_x
 _atom_site_fract_y
 _atom_site_fract_z
 _atom_site_occupancy
  Li0+  Li0  1  0.00000000  0.00000000  0.00000000  1.0
  Li0+  Li1  1  0.50000000  0.50000000  0.50000000  1.0
  Cu0+  Cu2  1  0.50000000  0.00000000  0.75000000  1.0
  Cu0+  Cu3  1  0.00000000  0.50000000  0.75000000  1.0
  Cu0+  Cu4  1  0.50000000  0.00000000  0.25000000  1.0
  Cu0+  Cu5  1  0.00000000  0.50000000  0.25000000  1.0
  P0+  P6  1  0.00000000  0.00000000  0.61200000  1.0
  P0+  P7  1  0.00000000  0.00000000  0.38800000  1.0
  P0+  P8  1  0.50000000  0.50000000  0.11200000  1.0
  P0+  P9  1  0.50000000  0.50000000  0.88800000  1.0
