# generated using pymatgen
data_Y3Rh2
_symmetry_space_group_name_H-M   'P 1'
_cell_length_a   11.23200000
_cell_length_b   11.23200000
_cell_length_c   25.16000000
_cell_angle_alpha   90.00000000
_cell_angle_beta   90.00000000
_cell_angle_gamma   90.00000000
_symmetry_Int_Tables_number   1
_chemical_formula_structural   Y3Rh2
_chemical_formula_sum   'Y84 Rh56'
_cell_volume   3174.13085184
_cell_formula_units_Z   28
loop_
 _symmetry_equiv_pos_site_id
 _symmetry_equiv_pos_as_xyz
  1  'x, y, z'
loop_
 _atom_type_symbol
 _atom_type_oxidation_number
  Y0+  0.0
  Rh0+  0.0
loop_
 _atom_site_type_symbol
 _atom_site_label
 _atom_site_symmetry_multiplicity
 _atom_site_fract_x
 _atom_site_fract_y
 _atom_site_fract_z
 _atom_site_occupancy
  Y0+  Y0  1  0.07570000  0.20420000  0.42880000  1.0
  Y0+  Y1  1  0.92430000  0.79580000  0.42880000  1.0
  Y0+  Y2  1  0.92430000  0.20420000  0.92880000  1.0
  Y0+  Y3  1  0.07570000  0.79580000  0.92880000  1.0
  Y0+  Y4  1  0.20420000  0.92430000  0.42880000  1.0
  Y0+  Y5  1  0.79580000  0.07570000  0.42880000  1.0
  Y0+  Y6  1  0.20420000  0.07570000  0.92880000  1.0
  Y0+  Y7  1  0.79580000  0.92430000  0.92880000  1.0
  Y0+  Y8  1  0.92430000  0.79580000  0.57120000  1.0
  Y0+  Y9  1  0.07570000  0.20420000  0.57120000  1.0
  Y0+  Y10  1  0.07570000  0.79580000  0.07120000  1.0
  Y0+  Y11  1  0.92430000  0.20420000  0.07120000  1.0
  Y0+  Y12  1  0.79580000  0.07570000  0.57120000  1.0
  Y0+  Y13  1  0.20420000  0.92430000  0.57120000  1.0
  Y0+  Y14  1  0.79580000  0.92430000  0.07120000  1.0
  Y0+  Y15  1  0.20420000  0.07570000  0.07120000  1.0
  Y0+  Y16  1  0.57570000  0.70420000  0.92880000  1.0
  Y0+  Y17  1  0.42430000  0.29580000  0.92880000  1.0
  Y0+  Y18  1  0.42430000  0.70420000  0.42880000  1.0
  Y0+  Y19  1  0.57570000  0.29580000  0.42880000  1.0
  Y0+  Y20  1  0.70420000  0.42430000  0.92880000  1.0
  Y0+  Y21  1  0.29580000  0.57570000  0.92880000  1.0
  Y0+  Y22  1  0.70420000  0.57570000  0.42880000  1.0
  Y0+  Y23  1  0.29580000  0.42430000  0.42880000  1.0
  Y0+  Y24  1  0.42430000  0.29580000  0.07120000  1.0
  Y0+  Y25  1  0.57570000  0.70420000  0.07120000  1.0
  Y0+  Y26  1  0.57570000  0.29580000  0.57120000  1.0
  Y0+  Y27  1  0.42430000  0.70420000  0.57120000  1.0
  Y0+  Y28  1  0.29580000  0.57570000  0.07120000  1.0
  Y0+  Y29  1  0.70420000  0.42430000  0.07120000  1.0
  Y0+  Y30  1  0.29580000  0.42430000  0.57120000  1.0
  Y0+  Y31  1  0.70420000  0.57570000  0.57120000  1.0
  Y0+  Y32  1  0.21130000  0.07990000  0.30650000  1.0
  Y0+  Y33  1  0.78870000  0.92010000  0.30650000  1.0
  Y0+  Y34  1  0.78870000  0.07990000  0.80650000  1.0
  Y0+  Y35  1  0.21130000  0.92010000  0.80650000  1.0
  Y0+  Y36  1  0.07990000  0.78870000  0.30650000  1.0
  Y0+  Y37  1  0.92010000  0.21130000  0.30650000  1.0
  Y0+  Y38  1  0.07990000  0.21130000  0.80650000  1.0
  Y0+  Y39  1  0.92010000  0.78870000  0.80650000  1.0
  Y0+  Y40  1  0.78870000  0.92010000  0.69350000  1.0
  Y0+  Y41  1  0.21130000  0.07990000  0.69350000  1.0
  Y0+  Y42  1  0.21130000  0.92010000  0.19350000  1.0
  Y0+  Y43  1  0.78870000  0.07990000  0.19350000  1.0
  Y0+  Y44  1  0.92010000  0.21130000  0.69350000  1.0
  Y0+  Y45  1  0.07990000  0.78870000  0.69350000  1.0
  Y0+  Y46  1  0.92010000  0.78870000  0.19350000  1.0
  Y0+  Y47  1  0.07990000  0.21130000  0.19350000  1.0
  Y0+  Y48  1  0.71130000  0.57990000  0.80650000  1.0
  Y0+  Y49  1  0.28870000  0.42010000  0.80650000  1.0
  Y0+  Y50  1  0.28870000  0.57990000  0.30650000  1.0
  Y0+  Y51  1  0.71130000  0.42010000  0.30650000  1.0
  Y0+  Y52  1  0.57990000  0.28870000  0.80650000  1.0
  Y0+  Y53  1  0.42010000  0.71130000  0.80650000  1.0
  Y0+  Y54  1  0.57990000  0.71130000  0.30650000  1.0
  Y0+  Y55  1  0.42010000  0.28870000  0.30650000  1.0
  Y0+  Y56  1  0.28870000  0.42010000  0.19350000  1.0
  Y0+  Y57  1  0.71130000  0.57990000  0.19350000  1.0
  Y0+  Y58  1  0.71130000  0.42010000  0.69350000  1.0
  Y0+  Y59  1  0.28870000  0.57990000  0.69350000  1.0
  Y0+  Y60  1  0.42010000  0.71130000  0.19350000  1.0
  Y0+  Y61  1  0.57990000  0.28870000  0.19350000  1.0
  Y0+  Y62  1  0.42010000  0.28870000  0.69350000  1.0
  Y0+  Y63  1  0.57990000  0.71130000  0.69350000  1.0
  Y0+  Y64  1  0.84830000  0.34830000  0.50000000  1.0
  Y0+  Y65  1  0.15170000  0.65170000  0.50000000  1.0
  Y0+  Y66  1  0.15170000  0.34830000  0.00000000  1.0
  Y0+  Y67  1  0.84830000  0.65170000  0.00000000  1.0
  Y0+  Y68  1  0.34830000  0.15170000  0.50000000  1.0
  Y0+  Y69  1  0.65170000  0.84830000  0.50000000  1.0
  Y0+  Y70  1  0.34830000  0.84830000  0.00000000  1.0
  Y0+  Y71  1  0.65170000  0.15170000  0.00000000  1.0
  Y0+  Y72  1  0.50000000  0.00000000  0.38780000  1.0
  Y0+  Y73  1  0.50000000  0.00000000  0.88780000  1.0
  Y0+  Y74  1  0.00000000  0.50000000  0.38780000  1.0
  Y0+  Y75  1  0.00000000  0.50000000  0.88780000  1.0
  Y0+  Y76  1  0.50000000  0.00000000  0.61220000  1.0
  Y0+  Y77  1  0.50000000  0.00000000  0.11220000  1.0
  Y0+  Y78  1  0.00000000  0.50000000  0.61220000  1.0
  Y0+  Y79  1  0.00000000  0.50000000  0.11220000  1.0
  Y0+  Y80  1  0.50000000  0.00000000  0.25000000  1.0
  Y0+  Y81  1  0.50000000  0.00000000  0.75000000  1.0
  Y0+  Y82  1  0.00000000  0.50000000  0.25000000  1.0
  Y0+  Y83  1  0.00000000  0.50000000  0.75000000  1.0
  Rh0+  Rh84  1  0.82080000  0.32080000  0.39370000  1.0
  Rh0+  Rh85  1  0.17920000  0.67920000  0.39370000  1.0
  Rh0+  Rh86  1  0.17920000  0.32080000  0.89370000  1.0
  Rh0+  Rh87  1  0.82080000  0.67920000  0.89370000  1.0
  Rh0+  Rh88  1  0.32080000  0.17920000  0.39370000  1.0
  Rh0+  Rh89  1  0.67920000  0.82080000  0.39370000  1.0
  Rh0+  Rh90  1  0.32080000  0.82080000  0.89370000  1.0
  Rh0+  Rh91  1  0.67920000  0.17920000  0.89370000  1.0
  Rh0+  Rh92  1  0.17920000  0.67920000  0.60630000  1.0
  Rh0+  Rh93  1  0.82080000  0.32080000  0.60630000  1.0
  Rh0+  Rh94  1  0.82080000  0.67920000  0.10630000  1.0
  Rh0+  Rh95  1  0.17920000  0.32080000  0.10630000  1.0
  Rh0+  Rh96  1  0.67920000  0.82080000  0.60630000  1.0
  Rh0+  Rh97  1  0.32080000  0.17920000  0.60630000  1.0
  Rh0+  Rh98  1  0.67920000  0.17920000  0.10630000  1.0
  Rh0+  Rh99  1  0.32080000  0.82080000  0.10630000  1.0
  Rh0+  Rh100  1  0.65530000  0.15530000  0.31150000  1.0
  Rh0+  Rh101  1  0.34470000  0.84470000  0.31150000  1.0
  Rh0+  Rh102  1  0.34470000  0.15530000  0.81150000  1.0
  Rh0+  Rh103  1  0.65530000  0.84470000  0.81150000  1.0
  Rh0+  Rh104  1  0.15530000  0.34470000  0.31150000  1.0
  Rh0+  Rh105  1  0.84470000  0.65530000  0.31150000  1.0
  Rh0+  Rh106  1  0.15530000  0.65530000  0.81150000  1.0
  Rh0+  Rh107  1  0.84470000  0.34470000  0.81150000  1.0
  Rh0+  Rh108  1  0.34470000  0.84470000  0.68850000  1.0
  Rh0+  Rh109  1  0.65530000  0.15530000  0.68850000  1.0
  Rh0+  Rh110  1  0.65530000  0.84470000  0.18850000  1.0
  Rh0+  Rh111  1  0.34470000  0.15530000  0.18850000  1.0
  Rh0+  Rh112  1  0.84470000  0.65530000  0.68850000  1.0
  Rh0+  Rh113  1  0.15530000  0.34470000  0.68850000  1.0
  Rh0+  Rh114  1  0.84470000  0.34470000  0.18850000  1.0
  Rh0+  Rh115  1  0.15530000  0.65530000  0.18850000  1.0
  Rh0+  Rh116  1  0.59600000  0.09600000  0.50000000  1.0
  Rh0+  Rh117  1  0.40400000  0.90400000  0.50000000  1.0
  Rh0+  Rh118  1  0.40400000  0.09600000  0.00000000  1.0
  Rh0+  Rh119  1  0.59600000  0.90400000  0.00000000  1.0
  Rh0+  Rh120  1  0.09600000  0.40400000  0.50000000  1.0
  Rh0+  Rh121  1  0.90400000  0.59600000  0.50000000  1.0
  Rh0+  Rh122  1  0.09600000  0.59600000  0.00000000  1.0
  Rh0+  Rh123  1  0.90400000  0.40400000  0.00000000  1.0
  Rh0+  Rh124  1  0.00000000  0.00000000  0.36650000  1.0
  Rh0+  Rh125  1  0.00000000  0.00000000  0.86650000  1.0
  Rh0+  Rh126  1  0.00000000  0.00000000  0.63350000  1.0
  Rh0+  Rh127  1  0.00000000  0.00000000  0.13350000  1.0
  Rh0+  Rh128  1  0.50000000  0.50000000  0.86650000  1.0
  Rh0+  Rh129  1  0.50000000  0.50000000  0.36650000  1.0
  Rh0+  Rh130  1  0.50000000  0.50000000  0.13350000  1.0
  Rh0+  Rh131  1  0.50000000  0.50000000  0.63350000  1.0
  Rh0+  Rh132  1  0.00000000  0.00000000  0.50000000  1.0
  Rh0+  Rh133  1  0.00000000  0.00000000  0.00000000  1.0
  Rh0+  Rh134  1  0.50000000  0.50000000  0.00000000  1.0
  Rh0+  Rh135  1  0.50000000  0.50000000  0.50000000  1.0
  Rh0+  Rh136  1  0.00000000  0.00000000  0.25000000  1.0
  Rh0+  Rh137  1  0.00000000  0.00000000  0.75000000  1.0
  Rh0+  Rh138  1  0.50000000  0.50000000  0.75000000  1.0
  Rh0+  Rh139  1  0.50000000  0.50000000  0.25000000  1.0
