# generated using pymatgen
data_ZrAsRu
_symmetry_space_group_name_H-M   'P 1'
_cell_length_a   6.58600000
_cell_length_b   6.58600000
_cell_length_c   3.89100000
_cell_angle_alpha   90.00000000
_cell_angle_beta   90.00000000
_cell_angle_gamma   120.00000000
_symmetry_Int_Tables_number   1
_chemical_formula_structural   ZrAsRu
_chemical_formula_sum   'Zr3 As3 Ru3'
_cell_volume   146.16228210
_cell_formula_units_Z   3
loop_
 _symmetry_equiv_pos_site_id
 _symmetry_equiv_pos_as_xyz
  1  'x, y, z'
loop_
 _atom_type_symbol
 _atom_type_oxidation_number
  Zr0+  0.0
  As0+  0.0
  Ru0+  0.0
loop_
 _atom_site_type_symbol
 _atom_site_label
 _atom_site_symmetry_multiplicity
 _atom_site_fract_x
 _atom_site_fract_y
 _atom_site_fract_z
 _atom_site_occupancy
  Zr0+  Zr0  1  0.41600000  0.41600000  0.50000000  1.0
  Zr0+  Zr1  1  0.58400000  0.00000000  0.50000000  1.0
  Zr0+  Zr2  1  0.00000000  0.58400000  0.50000000  1.0
  As0+  As3  1  0.66666667  0.33333333  0.00000000  1.0
  As0+  As4  1  0.33333333  0.66666667  0.00000000  1.0
  As0+  As5  1  0.00000000  0.00000000  0.50000000  1.0
  Ru0+  Ru6  1  0.75500000  0.75500000  0.00000000  1.0
  Ru0+  Ru7  1  0.24500000  0.00000000  0.00000000  1.0
  Ru0+  Ru8  1  0.00000000  0.24500000  0.00000000  1.0
