# generated using pymatgen
data_Ba(AsPd)2
_symmetry_space_group_name_H-M   'P 1'
_cell_length_a   4.48700000
_cell_length_b   4.48700000
_cell_length_c   20.63500000
_cell_angle_alpha   90.00000000
_cell_angle_beta   90.00000000
_cell_angle_gamma   90.00000000
_symmetry_Int_Tables_number   1
_chemical_formula_structural   Ba(AsPd)2
_chemical_formula_sum   'Ba4 As8 Pd8'
_cell_volume   415.44794232
_cell_formula_units_Z   4
loop_
 _symmetry_equiv_pos_site_id
 _symmetry_equiv_pos_as_xyz
  1  'x, y, z'
loop_
 _atom_type_symbol
 _atom_type_oxidation_number
  Ba2+  2.0
  As3-  -3.0
  Pd2+  2.0
loop_
 _atom_site_type_symbol
 _atom_site_label
 _atom_site_symmetry_multiplicity
 _atom_site_fract_x
 _atom_site_fract_y
 _atom_site_fract_z
 _atom_site_occupancy
  Ba2+  Ba0  1  0.00000000  0.00000000  0.62430000  1.0
  Ba2+  Ba1  1  0.00000000  0.00000000  0.37570000  1.0
  Ba2+  Ba2  1  0.50000000  0.50000000  0.12430000  1.0
  Ba2+  Ba3  1  0.50000000  0.50000000  0.87570000  1.0
  As3-  As4  1  0.50000000  0.00000000  0.75000000  1.0
  As3-  As5  1  0.00000000  0.50000000  0.75000000  1.0
  As3-  As6  1  0.50000000  0.00000000  0.25000000  1.0
  As3-  As7  1  0.00000000  0.50000000  0.25000000  1.0
  As3-  As8  1  0.00000000  0.00000000  0.93350000  1.0
  As3-  As9  1  0.00000000  0.00000000  0.06650000  1.0
  As3-  As10  1  0.50000000  0.50000000  0.43350000  1.0
  As3-  As11  1  0.50000000  0.50000000  0.56650000  1.0
  Pd2+  Pd12  1  0.00000000  0.00000000  0.80620000  1.0
  Pd2+  Pd13  1  0.00000000  0.00000000  0.19380000  1.0
  Pd2+  Pd14  1  0.50000000  0.50000000  0.30620000  1.0
  Pd2+  Pd15  1  0.50000000  0.50000000  0.69380000  1.0
  Pd2+  Pd16  1  0.50000000  0.00000000  0.00000000  1.0
  Pd2+  Pd17  1  0.00000000  0.50000000  0.00000000  1.0
  Pd2+  Pd18  1  0.00000000  0.50000000  0.50000000  1.0
  Pd2+  Pd19  1  0.50000000  0.00000000  0.50000000  1.0
