# generated using pymatgen
data_AgTe3
_symmetry_space_group_name_H-M   'P 1'
_cell_length_a   8.64500000
_cell_length_b   8.64500000
_cell_length_c   5.27200000
_cell_angle_alpha   90.00000000
_cell_angle_beta   90.00000000
_cell_angle_gamma   120.00000000
_symmetry_Int_Tables_number   1
_chemical_formula_structural   AgTe3
_chemical_formula_sum   'Ag3 Te9'
_cell_volume   341.22121771
_cell_formula_units_Z   3
loop_
 _symmetry_equiv_pos_site_id
 _symmetry_equiv_pos_as_xyz
  1  'x, y, z'
loop_
 _atom_type_symbol
 _atom_type_oxidation_number
  Ag0+  0.0
  Te0+  0.0
loop_
 _atom_site_type_symbol
 _atom_site_label
 _atom_site_symmetry_multiplicity
 _atom_site_fract_x
 _atom_site_fract_y
 _atom_site_fract_z
 _atom_site_occupancy
  Ag0+  Ag0  1  0.00000000  0.00000000  0.00000000  1.0
  Ag0+  Ag1  1  0.66666667  0.33333333  0.33333333  1.0
  Ag0+  Ag2  1  0.33333333  0.66666667  0.66666667  1.0
  Te0+  Te3  1  0.66560000  0.83280000  0.34130000  1.0
  Te0+  Te4  1  0.16720000  0.33440000  0.34130000  1.0
  Te0+  Te5  1  0.16720000  0.83280000  0.34130000  1.0
  Te0+  Te6  1  0.33226667  0.16613333  0.67463333  1.0
  Te0+  Te7  1  0.83386667  0.66773333  0.67463333  1.0
  Te0+  Te8  1  0.83386667  0.16613333  0.67463333  1.0
  Te0+  Te9  1  0.99893333  0.49946667  0.00796667  1.0
  Te0+  Te10  1  0.50053333  0.00106667  0.00796667  1.0
  Te0+  Te11  1  0.50053333  0.49946667  0.00796667  1.0
