# generated using pymatgen
data_YCI
_symmetry_space_group_name_H-M   'P 1'
_cell_length_a   7.17400000
_cell_length_b   3.86600000
_cell_length_c   10.41200000
_cell_angle_alpha   90.00000000
_cell_angle_beta   92.98000000
_cell_angle_gamma   90.00000000
_symmetry_Int_Tables_number   1
_chemical_formula_structural   YCI
_chemical_formula_sum   'Y4 C4 I4'
_cell_volume   288.38303367
_cell_formula_units_Z   4
loop_
 _symmetry_equiv_pos_site_id
 _symmetry_equiv_pos_as_xyz
  1  'x, y, z'
loop_
 _atom_type_symbol
 _atom_type_oxidation_number
  Y3+  3.0
  C2-  -2.0
  I-  -1.0
loop_
 _atom_site_type_symbol
 _atom_site_label
 _atom_site_symmetry_multiplicity
 _atom_site_fract_x
 _atom_site_fract_y
 _atom_site_fract_z
 _atom_site_occupancy
  Y3+  Y0  1  0.85300000  0.00000000  0.86400000  1.0
  Y3+  Y1  1  0.14700000  0.00000000  0.13600000  1.0
  Y3+  Y2  1  0.35300000  0.50000000  0.86400000  1.0
  Y3+  Y3  1  0.64700000  0.50000000  0.13600000  1.0
  C2-  C4  1  0.57634000  0.00000000  0.96940000  1.0
  C2-  C5  1  0.42366000  0.00000000  0.03060000  1.0
  C2-  C6  1  0.07634000  0.50000000  0.96940000  1.0
  C2-  C7  1  0.92366000  0.50000000  0.03060000  1.0
  I-  I8  1  0.82930000  0.00000000  0.33240000  1.0
  I-  I9  1  0.17070000  0.00000000  0.66760000  1.0
  I-  I10  1  0.32930000  0.50000000  0.33240000  1.0
  I-  I11  1  0.67070000  0.50000000  0.66760000  1.0
