# generated using pymatgen
data_In3Rh
_symmetry_space_group_name_H-M   'P 1'
_cell_length_a   6.98280000
_cell_length_b   6.98280000
_cell_length_c   7.11110000
_cell_angle_alpha   90.00000000
_cell_angle_beta   90.00000000
_cell_angle_gamma   90.00000000
_symmetry_Int_Tables_number   1
_chemical_formula_structural   In3Rh
_chemical_formula_sum   'In12 Rh4'
_cell_volume   346.73365087
_cell_formula_units_Z   4
loop_
 _symmetry_equiv_pos_site_id
 _symmetry_equiv_pos_as_xyz
  1  'x, y, z'
loop_
 _atom_type_symbol
 _atom_type_oxidation_number
  In0+  0.0
  Rh0+  0.0
loop_
 _atom_site_type_symbol
 _atom_site_label
 _atom_site_symmetry_multiplicity
 _atom_site_fract_x
 _atom_site_fract_y
 _atom_site_fract_z
 _atom_site_occupancy
  In0+  In0  1  0.00000000  0.50000000  0.50000000  1.0
  In0+  In1  1  0.50000000  0.00000000  0.00000000  1.0
  In0+  In2  1  0.50000000  0.00000000  0.50000000  1.0
  In0+  In3  1  0.00000000  0.50000000  0.00000000  1.0
  In0+  In4  1  0.34829000  0.65171000  0.24512000  1.0
  In0+  In5  1  0.65171000  0.34829000  0.24512000  1.0
  In0+  In6  1  0.15171000  0.15171000  0.74512000  1.0
  In0+  In7  1  0.84829000  0.84829000  0.74512000  1.0
  In0+  In8  1  0.65171000  0.34829000  0.75488000  1.0
  In0+  In9  1  0.34829000  0.65171000  0.75488000  1.0
  In0+  In10  1  0.84829000  0.84829000  0.25488000  1.0
  In0+  In11  1  0.15171000  0.15171000  0.25488000  1.0
  Rh0+  Rh12  1  0.15366000  0.84634000  0.50000000  1.0
  Rh0+  Rh13  1  0.84634000  0.15366000  0.50000000  1.0
  Rh0+  Rh14  1  0.34634000  0.34634000  0.00000000  1.0
  Rh0+  Rh15  1  0.65366000  0.65366000  0.00000000  1.0
