# generated using pymatgen
data_Y2Si5Rh3
_symmetry_space_group_name_H-M   'P 1'
_cell_length_a   11.07800000
_cell_length_b   11.70100000
_cell_length_c   5.65600000
_cell_angle_alpha   90.00000000
_cell_angle_beta   118.51000000
_cell_angle_gamma   90.00000000
_symmetry_Int_Tables_number   1
_chemical_formula_structural   Y2Si5Rh3
_chemical_formula_sum   'Y8 Si20 Rh12'
_cell_volume   644.24503777
_cell_formula_units_Z   4
loop_
 _symmetry_equiv_pos_site_id
 _symmetry_equiv_pos_as_xyz
  1  'x, y, z'
loop_
 _atom_type_symbol
 _atom_type_oxidation_number
  Y0+  0.0
  Si0+  0.0
  Rh0+  0.0
loop_
 _atom_site_type_symbol
 _atom_site_label
 _atom_site_symmetry_multiplicity
 _atom_site_fract_x
 _atom_site_fract_y
 _atom_site_fract_z
 _atom_site_occupancy
  Y0+  Y0  1  0.26840000  0.86610000  0.76300000  1.0
  Y0+  Y1  1  0.73160000  0.86610000  0.73700000  1.0
  Y0+  Y2  1  0.73160000  0.13390000  0.23700000  1.0
  Y0+  Y3  1  0.26840000  0.13390000  0.26300000  1.0
  Y0+  Y4  1  0.76840000  0.36610000  0.76300000  1.0
  Y0+  Y5  1  0.23160000  0.36610000  0.73700000  1.0
  Y0+  Y6  1  0.23160000  0.63390000  0.23700000  1.0
  Y0+  Y7  1  0.76840000  0.63390000  0.26300000  1.0
  Si0+  Si8  1  0.33500000  0.60380000  0.83100000  1.0
  Si0+  Si9  1  0.66500000  0.60380000  0.66900000  1.0
  Si0+  Si10  1  0.66500000  0.39620000  0.16900000  1.0
  Si0+  Si11  1  0.33500000  0.39620000  0.33100000  1.0
  Si0+  Si12  1  0.83500000  0.10380000  0.83100000  1.0
  Si0+  Si13  1  0.16500000  0.10380000  0.66900000  1.0
  Si0+  Si14  1  0.16500000  0.89620000  0.16900000  1.0
  Si0+  Si15  1  0.83500000  0.89620000  0.33100000  1.0
  Si0+  Si16  1  0.00000000  0.79300000  0.75000000  1.0
  Si0+  Si17  1  0.00000000  0.20700000  0.25000000  1.0
  Si0+  Si18  1  0.50000000  0.29300000  0.75000000  1.0
  Si0+  Si19  1  0.50000000  0.70700000  0.25000000  1.0
  Si0+  Si20  1  0.00000000  0.48500000  0.75000000  1.0
  Si0+  Si21  1  0.00000000  0.51500000  0.25000000  1.0
  Si0+  Si22  1  0.50000000  0.98500000  0.75000000  1.0
  Si0+  Si23  1  0.50000000  0.01500000  0.25000000  1.0
  Si0+  Si24  1  0.00000000  0.21800000  0.75000000  1.0
  Si0+  Si25  1  0.00000000  0.78200000  0.25000000  1.0
  Si0+  Si26  1  0.50000000  0.71800000  0.75000000  1.0
  Si0+  Si27  1  0.50000000  0.28200000  0.25000000  1.0
  Rh0+  Rh28  1  0.10170000  0.63970000  0.62360000  1.0
  Rh0+  Rh29  1  0.89830000  0.63970000  0.87640000  1.0
  Rh0+  Rh30  1  0.89830000  0.36030000  0.37640000  1.0
  Rh0+  Rh31  1  0.10170000  0.36030000  0.12360000  1.0
  Rh0+  Rh32  1  0.60170000  0.13970000  0.62360000  1.0
  Rh0+  Rh33  1  0.39830000  0.13970000  0.87640000  1.0
  Rh0+  Rh34  1  0.39830000  0.86030000  0.37640000  1.0
  Rh0+  Rh35  1  0.60170000  0.86030000  0.12360000  1.0
  Rh0+  Rh36  1  0.00000000  0.99860000  0.75000000  1.0
  Rh0+  Rh37  1  0.00000000  0.00140000  0.25000000  1.0
  Rh0+  Rh38  1  0.50000000  0.49860000  0.75000000  1.0
  Rh0+  Rh39  1  0.50000000  0.50140000  0.25000000  1.0
