# generated using pymatgen
data_Rh17S15
_symmetry_space_group_name_H-M   'P 1'
_cell_length_a   9.90800000
_cell_length_b   9.90800000
_cell_length_c   9.90800000
_cell_angle_alpha   90.00000000
_cell_angle_beta   90.00000000
_cell_angle_gamma   90.00000000
_symmetry_Int_Tables_number   1
_chemical_formula_structural   Rh17S15
_chemical_formula_sum   'Rh34 S30'
_cell_volume   972.65314131
_cell_formula_units_Z   2
loop_
 _symmetry_equiv_pos_site_id
 _symmetry_equiv_pos_as_xyz
  1  'x, y, z'
loop_
 _atom_type_symbol
 _atom_type_oxidation_number
  Rh1.765+  1.765
  S2-  -2.0
loop_
 _atom_site_type_symbol
 _atom_site_label
 _atom_site_symmetry_multiplicity
 _atom_site_fract_x
 _atom_site_fract_y
 _atom_site_fract_z
 _atom_site_occupancy
  Rh1.765+  Rh0  1  0.14328000  0.35666000  0.64334000  1.0
  Rh1.765+  Rh1  1  0.35666000  0.35666000  0.85672000  1.0
  Rh1.765+  Rh2  1  0.35666000  0.14328000  0.64334000  1.0
  Rh1.765+  Rh3  1  0.14328000  0.64334000  0.35666000  1.0
  Rh1.765+  Rh4  1  0.35666000  0.64334000  0.14328000  1.0
  Rh1.765+  Rh5  1  0.35666000  0.85672000  0.35666000  1.0
  Rh1.765+  Rh6  1  0.85672000  0.35666000  0.35666000  1.0
  Rh1.765+  Rh7  1  0.64334000  0.35666000  0.14328000  1.0
  Rh1.765+  Rh8  1  0.64334000  0.14328000  0.35666000  1.0
  Rh1.765+  Rh9  1  0.85672000  0.64334000  0.64334000  1.0
  Rh1.765+  Rh10  1  0.64334000  0.64334000  0.85672000  1.0
  Rh1.765+  Rh11  1  0.64334000  0.85672000  0.64334000  1.0
  Rh1.765+  Rh12  1  0.85672000  0.64334000  0.35666000  1.0
  Rh1.765+  Rh13  1  0.64334000  0.64334000  0.14328000  1.0
  Rh1.765+  Rh14  1  0.64334000  0.85672000  0.35666000  1.0
  Rh1.765+  Rh15  1  0.85672000  0.35666000  0.64334000  1.0
  Rh1.765+  Rh16  1  0.64334000  0.35666000  0.85672000  1.0
  Rh1.765+  Rh17  1  0.64334000  0.14328000  0.64334000  1.0
  Rh1.765+  Rh18  1  0.14328000  0.64334000  0.64334000  1.0
  Rh1.765+  Rh19  1  0.35666000  0.64334000  0.85672000  1.0
  Rh1.765+  Rh20  1  0.35666000  0.85672000  0.64334000  1.0
  Rh1.765+  Rh21  1  0.14328000  0.35666000  0.35666000  1.0
  Rh1.765+  Rh22  1  0.35666000  0.35666000  0.14328000  1.0
  Rh1.765+  Rh23  1  0.35666000  0.14328000  0.35666000  1.0
  Rh1.765+  Rh24  1  0.00000000  0.23821000  0.00000000  1.0
  Rh1.765+  Rh25  1  0.23821000  0.00000000  0.00000000  1.0
  Rh1.765+  Rh26  1  0.00000000  0.00000000  0.76179000  1.0
  Rh1.765+  Rh27  1  0.00000000  0.76179000  0.00000000  1.0
  Rh1.765+  Rh28  1  0.00000000  0.00000000  0.23821000  1.0
  Rh1.765+  Rh29  1  0.76179000  0.00000000  0.00000000  1.0
  Rh1.765+  Rh30  1  0.00000000  0.50000000  0.00000000  1.0
  Rh1.765+  Rh31  1  0.50000000  0.00000000  0.00000000  1.0
  Rh1.765+  Rh32  1  0.00000000  0.00000000  0.50000000  1.0
  Rh1.765+  Rh33  1  0.50000000  0.50000000  0.50000000  1.0
  S2-  S34  1  0.16900000  0.50000000  0.83100000  1.0
  S2-  S35  1  0.50000000  0.16900000  0.83100000  1.0
  S2-  S36  1  0.16900000  0.16900000  0.50000000  1.0
  S2-  S37  1  0.16900000  0.50000000  0.16900000  1.0
  S2-  S38  1  0.50000000  0.83100000  0.16900000  1.0
  S2-  S39  1  0.16900000  0.83100000  0.50000000  1.0
  S2-  S40  1  0.83100000  0.50000000  0.16900000  1.0
  S2-  S41  1  0.50000000  0.16900000  0.16900000  1.0
  S2-  S42  1  0.83100000  0.16900000  0.50000000  1.0
  S2-  S43  1  0.83100000  0.50000000  0.83100000  1.0
  S2-  S44  1  0.50000000  0.83100000  0.83100000  1.0
  S2-  S45  1  0.83100000  0.83100000  0.50000000  1.0
  S2-  S46  1  0.00000000  0.22967000  0.77033000  1.0
  S2-  S47  1  0.22967000  0.22967000  0.00000000  1.0
  S2-  S48  1  0.22967000  0.00000000  0.77033000  1.0
  S2-  S49  1  0.00000000  0.77033000  0.22967000  1.0
  S2-  S50  1  0.22967000  0.77033000  0.00000000  1.0
  S2-  S51  1  0.22967000  0.00000000  0.22967000  1.0
  S2-  S52  1  0.00000000  0.22967000  0.22967000  1.0
  S2-  S53  1  0.77033000  0.22967000  0.00000000  1.0
  S2-  S54  1  0.77033000  0.00000000  0.22967000  1.0
  S2-  S55  1  0.00000000  0.77033000  0.77033000  1.0
  S2-  S56  1  0.77033000  0.77033000  0.00000000  1.0
  S2-  S57  1  0.77033000  0.00000000  0.77033000  1.0
  S2-  S58  1  0.26410000  0.50000000  0.50000000  1.0
  S2-  S59  1  0.50000000  0.50000000  0.73590000  1.0
  S2-  S60  1  0.50000000  0.26410000  0.50000000  1.0
  S2-  S61  1  0.50000000  0.50000000  0.26410000  1.0
  S2-  S62  1  0.50000000  0.73590000  0.50000000  1.0
  S2-  S63  1  0.73590000  0.50000000  0.50000000  1.0
