# generated using pymatgen
data_Sn4Ir
_symmetry_space_group_name_H-M   'P 1'
_cell_length_a   6.30960000
_cell_length_b   6.30960000
_cell_length_c   22.77000000
_cell_angle_alpha   90.00000000
_cell_angle_beta   90.00000000
_cell_angle_gamma   90.00000000
_symmetry_Int_Tables_number   1
_chemical_formula_structural   Sn4Ir
_chemical_formula_sum   'Sn32 Ir8'
_cell_volume   906.49765768
_cell_formula_units_Z   8
loop_
 _symmetry_equiv_pos_site_id
 _symmetry_equiv_pos_as_xyz
  1  'x, y, z'
loop_
 _atom_type_symbol
 _atom_type_oxidation_number
  Sn0+  0.0
  Ir0+  0.0
loop_
 _atom_site_type_symbol
 _atom_site_label
 _atom_site_symmetry_multiplicity
 _atom_site_fract_x
 _atom_site_fract_y
 _atom_site_fract_z
 _atom_site_occupancy
  Sn0+  Sn0  1  0.82660000  0.92292000  0.68857000  1.0
  Sn0+  Sn1  1  0.17340000  0.92292000  0.18857000  1.0
  Sn0+  Sn2  1  0.17292000  0.07660000  0.93857000  1.0
  Sn0+  Sn3  1  0.82708000  0.07660000  0.43857000  1.0
  Sn0+  Sn4  1  0.17340000  0.07708000  0.31143000  1.0
  Sn0+  Sn5  1  0.82660000  0.07708000  0.81143000  1.0
  Sn0+  Sn6  1  0.82708000  0.92340000  0.06143000  1.0
  Sn0+  Sn7  1  0.17292000  0.92340000  0.56143000  1.0
  Sn0+  Sn8  1  0.82660000  0.57708000  0.18857000  1.0
  Sn0+  Sn9  1  0.17340000  0.57708000  0.68857000  1.0
  Sn0+  Sn10  1  0.17292000  0.42340000  0.43857000  1.0
  Sn0+  Sn11  1  0.82708000  0.42340000  0.93857000  1.0
  Sn0+  Sn12  1  0.17340000  0.42292000  0.81143000  1.0
  Sn0+  Sn13  1  0.82660000  0.42292000  0.31143000  1.0
  Sn0+  Sn14  1  0.82708000  0.57660000  0.56143000  1.0
  Sn0+  Sn15  1  0.17292000  0.57660000  0.06143000  1.0
  Sn0+  Sn16  1  0.32660000  0.42292000  0.18857000  1.0
  Sn0+  Sn17  1  0.67340000  0.42292000  0.68857000  1.0
  Sn0+  Sn18  1  0.67292000  0.57660000  0.43857000  1.0
  Sn0+  Sn19  1  0.32708000  0.57660000  0.93857000  1.0
  Sn0+  Sn20  1  0.67340000  0.57708000  0.81143000  1.0
  Sn0+  Sn21  1  0.32660000  0.57708000  0.31143000  1.0
  Sn0+  Sn22  1  0.32708000  0.42340000  0.56143000  1.0
  Sn0+  Sn23  1  0.67292000  0.42340000  0.06143000  1.0
  Sn0+  Sn24  1  0.32660000  0.07708000  0.68857000  1.0
  Sn0+  Sn25  1  0.67340000  0.07708000  0.18857000  1.0
  Sn0+  Sn26  1  0.67292000  0.92340000  0.93857000  1.0
  Sn0+  Sn27  1  0.32708000  0.92340000  0.43857000  1.0
  Sn0+  Sn28  1  0.67340000  0.92292000  0.31143000  1.0
  Sn0+  Sn29  1  0.32660000  0.92292000  0.81143000  1.0
  Sn0+  Sn30  1  0.32708000  0.07660000  0.06143000  1.0
  Sn0+  Sn31  1  0.67292000  0.07660000  0.56143000  1.0
  Ir0+  Ir32  1  0.50000000  0.75000000  0.62500000  1.0
  Ir0+  Ir33  1  0.50000000  0.75000000  0.12500000  1.0
  Ir0+  Ir34  1  0.00000000  0.75000000  0.87500000  1.0
  Ir0+  Ir35  1  0.00000000  0.75000000  0.37500000  1.0
  Ir0+  Ir36  1  0.50000000  0.25000000  0.37500000  1.0
  Ir0+  Ir37  1  0.50000000  0.25000000  0.87500000  1.0
  Ir0+  Ir38  1  0.00000000  0.25000000  0.12500000  1.0
  Ir0+  Ir39  1  0.00000000  0.25000000  0.62500000  1.0
