# generated using pymatgen
data_Ga9Ir2
_symmetry_space_group_name_H-M   'P 1'
_cell_length_a   6.43290000
_cell_length_b   6.40990000
_cell_length_c   8.80680000
_cell_angle_alpha   90.00000000
_cell_angle_beta   93.46400000
_cell_angle_gamma   90.00000000
_symmetry_Int_Tables_number   1
_chemical_formula_structural   Ga9Ir2
_chemical_formula_sum   'Ga18 Ir4'
_cell_volume   362.47828036
_cell_formula_units_Z   2
loop_
 _symmetry_equiv_pos_site_id
 _symmetry_equiv_pos_as_xyz
  1  'x, y, z'
loop_
 _atom_type_symbol
 _atom_type_oxidation_number
  Ga0+  0.0
  Ir0+  0.0
loop_
 _atom_site_type_symbol
 _atom_site_label
 _atom_site_symmetry_multiplicity
 _atom_site_fract_x
 _atom_site_fract_y
 _atom_site_fract_z
 _atom_site_occupancy
  Ga0+  Ga0  1  0.59970000  0.76210000  0.72640000  1.0
  Ga0+  Ga1  1  0.59970000  0.23790000  0.22640000  1.0
  Ga0+  Ga2  1  0.39960000  0.73650000  0.26750000  1.0
  Ga0+  Ga3  1  0.39960000  0.26350000  0.76750000  1.0
  Ga0+  Ga4  1  0.61300000  0.55440000  0.99990000  1.0
  Ga0+  Ga5  1  0.61300000  0.44560000  0.49990000  1.0
  Ga0+  Ga6  1  0.39820000  0.94550000  0.99240000  1.0
  Ga0+  Ga7  1  0.39820000  0.05450000  0.49240000  1.0
  Ga0+  Ga8  1  0.89290000  0.47150000  0.77910000  1.0
  Ga0+  Ga9  1  0.89290000  0.52850000  0.27910000  1.0
  Ga0+  Ga10  1  0.09090000  0.04340000  0.23130000  1.0
  Ga0+  Ga11  1  0.09090000  0.95660000  0.73130000  1.0
  Ga0+  Ga12  1  0.79790000  0.13840000  0.95680000  1.0
  Ga0+  Ga13  1  0.79790000  0.86160000  0.45680000  1.0
  Ga0+  Ga14  1  0.21580000  0.34270000  0.03780000  1.0
  Ga0+  Ga15  1  0.21580000  0.65730000  0.53780000  1.0
  Ga0+  Ga16  1  0.02990000  0.25850000  0.52720000  1.0
  Ga0+  Ga17  1  0.02990000  0.74150000  0.02720000  1.0
  Ir0+  Ir18  1  0.73930000  0.12479000  0.66830000  1.0
  Ir0+  Ir19  1  0.73930000  0.87521000  0.16830000  1.0
  Ir0+  Ir20  1  0.25995000  0.37764000  0.33167000  1.0
  Ir0+  Ir21  1  0.25995000  0.62236000  0.83167000  1.0
