# generated using pymatgen
data_Y3(B3Os4)2
_symmetry_space_group_name_H-M   'P 1'
_cell_length_a   5.47920000
_cell_length_b   9.51390000
_cell_length_c   17.69720000
_cell_angle_alpha   90.00000000
_cell_angle_beta   90.00000000
_cell_angle_gamma   90.00000000
_symmetry_Int_Tables_number   1
_chemical_formula_structural   Y3(B3Os4)2
_chemical_formula_sum   'Y12 B24 Os32'
_cell_volume   922.52956761
_cell_formula_units_Z   4
loop_
 _symmetry_equiv_pos_site_id
 _symmetry_equiv_pos_as_xyz
  1  'x, y, z'
loop_
 _atom_type_symbol
 _atom_type_oxidation_number
  Y0+  0.0
  B0+  0.0
  Os0+  0.0
loop_
 _atom_site_type_symbol
 _atom_site_label
 _atom_site_symmetry_multiplicity
 _atom_site_fract_x
 _atom_site_fract_y
 _atom_site_fract_z
 _atom_site_occupancy
  Y0+  Y0  1  0.00000000  0.00000000  0.82083000  1.0
  Y0+  Y1  1  0.00000000  0.00000000  0.17917000  1.0
  Y0+  Y2  1  0.00000000  0.50000000  0.32083000  1.0
  Y0+  Y3  1  0.00000000  0.50000000  0.67917000  1.0
  Y0+  Y4  1  0.50000000  0.00000000  0.32083000  1.0
  Y0+  Y5  1  0.50000000  0.00000000  0.67917000  1.0
  Y0+  Y6  1  0.50000000  0.50000000  0.82083000  1.0
  Y0+  Y7  1  0.50000000  0.50000000  0.17917000  1.0
  Y0+  Y8  1  0.00000000  0.00000000  0.00000000  1.0
  Y0+  Y9  1  0.00000000  0.50000000  0.50000000  1.0
  Y0+  Y10  1  0.50000000  0.00000000  0.50000000  1.0
  Y0+  Y11  1  0.50000000  0.50000000  0.00000000  1.0
  B0+  B12  1  0.00000000  0.14800000  0.67750000  1.0
  B0+  B13  1  0.00000000  0.85200000  0.32250000  1.0
  B0+  B14  1  0.00000000  0.14800000  0.32250000  1.0
  B0+  B15  1  0.00000000  0.85200000  0.67750000  1.0
  B0+  B16  1  0.00000000  0.64800000  0.17750000  1.0
  B0+  B17  1  0.00000000  0.35200000  0.82250000  1.0
  B0+  B18  1  0.00000000  0.64800000  0.82250000  1.0
  B0+  B19  1  0.00000000  0.35200000  0.17750000  1.0
  B0+  B20  1  0.50000000  0.14800000  0.17750000  1.0
  B0+  B21  1  0.50000000  0.85200000  0.82250000  1.0
  B0+  B22  1  0.50000000  0.14800000  0.82250000  1.0
  B0+  B23  1  0.50000000  0.85200000  0.17750000  1.0
  B0+  B24  1  0.50000000  0.64800000  0.67750000  1.0
  B0+  B25  1  0.50000000  0.35200000  0.32250000  1.0
  B0+  B26  1  0.50000000  0.64800000  0.32250000  1.0
  B0+  B27  1  0.50000000  0.35200000  0.67750000  1.0
  B0+  B28  1  0.00000000  0.32000000  0.00000000  1.0
  B0+  B29  1  0.00000000  0.68000000  0.00000000  1.0
  B0+  B30  1  0.00000000  0.82000000  0.50000000  1.0
  B0+  B31  1  0.00000000  0.18000000  0.50000000  1.0
  B0+  B32  1  0.50000000  0.32000000  0.50000000  1.0
  B0+  B33  1  0.50000000  0.68000000  0.50000000  1.0
  B0+  B34  1  0.50000000  0.82000000  0.00000000  1.0
  B0+  B35  1  0.50000000  0.18000000  0.00000000  1.0
  Os0+  Os36  1  0.25000000  0.25000000  0.91006000  1.0
  Os0+  Os37  1  0.25000000  0.75000000  0.08994000  1.0
  Os0+  Os38  1  0.75000000  0.25000000  0.08994000  1.0
  Os0+  Os39  1  0.75000000  0.75000000  0.91006000  1.0
  Os0+  Os40  1  0.75000000  0.75000000  0.08994000  1.0
  Os0+  Os41  1  0.75000000  0.25000000  0.91006000  1.0
  Os0+  Os42  1  0.25000000  0.75000000  0.91006000  1.0
  Os0+  Os43  1  0.25000000  0.25000000  0.08994000  1.0
  Os0+  Os44  1  0.25000000  0.75000000  0.41006000  1.0
  Os0+  Os45  1  0.25000000  0.25000000  0.58994000  1.0
  Os0+  Os46  1  0.75000000  0.75000000  0.58994000  1.0
  Os0+  Os47  1  0.75000000  0.25000000  0.41006000  1.0
  Os0+  Os48  1  0.75000000  0.25000000  0.58994000  1.0
  Os0+  Os49  1  0.75000000  0.75000000  0.41006000  1.0
  Os0+  Os50  1  0.25000000  0.25000000  0.41006000  1.0
  Os0+  Os51  1  0.25000000  0.75000000  0.58994000  1.0
  Os0+  Os52  1  0.00000000  0.00000000  0.58045000  1.0
  Os0+  Os53  1  0.00000000  0.00000000  0.41955000  1.0
  Os0+  Os54  1  0.00000000  0.50000000  0.08045000  1.0
  Os0+  Os55  1  0.00000000  0.50000000  0.91955000  1.0
  Os0+  Os56  1  0.50000000  0.00000000  0.08045000  1.0
  Os0+  Os57  1  0.50000000  0.00000000  0.91955000  1.0
  Os0+  Os58  1  0.50000000  0.50000000  0.58045000  1.0
  Os0+  Os59  1  0.50000000  0.50000000  0.41955000  1.0
  Os0+  Os60  1  0.25000000  0.25000000  0.75000000  1.0
  Os0+  Os61  1  0.25000000  0.75000000  0.25000000  1.0
  Os0+  Os62  1  0.75000000  0.25000000  0.25000000  1.0
  Os0+  Os63  1  0.75000000  0.75000000  0.75000000  1.0
  Os0+  Os64  1  0.75000000  0.75000000  0.25000000  1.0
  Os0+  Os65  1  0.75000000  0.25000000  0.75000000  1.0
  Os0+  Os66  1  0.25000000  0.75000000  0.75000000  1.0
  Os0+  Os67  1  0.25000000  0.25000000  0.25000000  1.0
