# generated using pymatgen
data_BaSn3
_symmetry_space_group_name_H-M   'P 1'
_cell_length_a   7.25400000
_cell_length_b   7.25400000
_cell_length_c   5.50000000
_cell_angle_alpha   90.00000000
_cell_angle_beta   90.00000000
_cell_angle_gamma   120.00000000
_symmetry_Int_Tables_number   1
_chemical_formula_structural   BaSn3
_chemical_formula_sum   'Ba2 Sn6'
_cell_volume   250.63886989
_cell_formula_units_Z   2
loop_
 _symmetry_equiv_pos_site_id
 _symmetry_equiv_pos_as_xyz
  1  'x, y, z'
loop_
 _atom_type_symbol
 _atom_type_oxidation_number
  Ba0+  0.0
  Sn0+  0.0
loop_
 _atom_site_type_symbol
 _atom_site_label
 _atom_site_symmetry_multiplicity
 _atom_site_fract_x
 _atom_site_fract_y
 _atom_site_fract_z
 _atom_site_occupancy
  Ba0+  Ba0  1  0.33333333  0.66663333  0.25000000  1.0
  Ba0+  Ba1  1  0.66666667  0.33336667  0.75000000  1.0
  Sn0+  Sn2  1  0.28060000  0.14030000  0.25000000  1.0
  Sn0+  Sn3  1  0.85970000  0.14030000  0.25000000  1.0
  Sn0+  Sn4  1  0.85970000  0.71940000  0.25000000  1.0
  Sn0+  Sn5  1  0.71940000  0.85970000  0.75000000  1.0
  Sn0+  Sn6  1  0.14030000  0.85970000  0.75000000  1.0
  Sn0+  Sn7  1  0.14030000  0.28060000  0.75000000  1.0
