# generated using pymatgen
data_CuSe2
_symmetry_space_group_name_H-M   'P 1'
_cell_length_a   5.02260000
_cell_length_b   6.19570000
_cell_length_c   3.74680000
_cell_angle_alpha   90.00000000
_cell_angle_beta   90.00000000
_cell_angle_gamma   90.00000000
_symmetry_Int_Tables_number   1
_chemical_formula_structural   CuSe2
_chemical_formula_sum   'Cu2 Se4'
_cell_volume   116.59488130
_cell_formula_units_Z   2
loop_
 _symmetry_equiv_pos_site_id
 _symmetry_equiv_pos_as_xyz
  1  'x, y, z'
loop_
 _atom_type_symbol
 _atom_type_oxidation_number
  Cu2+  2.0
  Se-  -1.0
loop_
 _atom_site_type_symbol
 _atom_site_label
 _atom_site_symmetry_multiplicity
 _atom_site_fract_x
 _atom_site_fract_y
 _atom_site_fract_z
 _atom_site_occupancy
  Cu2+  Cu0  1  0.50000000  0.50000000  0.50000000  1.0
  Cu2+  Cu1  1  0.00000000  0.00000000  0.00000000  1.0
  Se-  Se2  1  0.68350000  0.11510000  0.50000000  1.0
  Se-  Se3  1  0.31650000  0.88490000  0.50000000  1.0
  Se-  Se4  1  0.18350000  0.38490000  0.00000000  1.0
  Se-  Se5  1  0.81650000  0.61510000  0.00000000  1.0
