# generated using pymatgen
data_ScPIr
_symmetry_space_group_name_H-M   'P 1'
_cell_length_a   6.37200000
_cell_length_b   6.37200000
_cell_length_c   3.89200000
_cell_angle_alpha   90.00000000
_cell_angle_beta   90.00000000
_cell_angle_gamma   120.00000000
_symmetry_Int_Tables_number   1
_chemical_formula_structural   ScPIr
_chemical_formula_sum   'Sc3 P3 Ir3'
_cell_volume   136.85321283
_cell_formula_units_Z   3
loop_
 _symmetry_equiv_pos_site_id
 _symmetry_equiv_pos_as_xyz
  1  'x, y, z'
loop_
 _atom_type_symbol
 _atom_type_oxidation_number
  Sc0+  0.0
  P0+  0.0
  Ir0+  0.0
loop_
 _atom_site_type_symbol
 _atom_site_label
 _atom_site_symmetry_multiplicity
 _atom_site_fract_x
 _atom_site_fract_y
 _atom_site_fract_z
 _atom_site_occupancy
  Sc0+  Sc0  1  0.42270000  0.42270000  0.50000000  1.0
  Sc0+  Sc1  1  0.57730000  0.00000000  0.50000000  1.0
  Sc0+  Sc2  1  0.00000000  0.57730000  0.50000000  1.0
  P0+  P3  1  0.33333333  0.66666667  0.00000000  1.0
  P0+  P4  1  0.66666667  0.33333333  0.00000000  1.0
  P0+  P5  1  0.00000000  0.00000000  0.50000000  1.0
  Ir0+  Ir6  1  0.75191000  0.75191000  0.00000000  1.0
  Ir0+  Ir7  1  0.24809000  0.00000000  0.00000000  1.0
  Ir0+  Ir8  1  0.00000000  0.24809000  0.00000000  1.0
