# generated using pymatgen
data_Ta5GeB2
_symmetry_space_group_name_H-M   'P 1'
_cell_length_a   6.23900000
_cell_length_b   6.23900000
_cell_length_c   11.57800000
_cell_angle_alpha   90.00000000
_cell_angle_beta   90.00000000
_cell_angle_gamma   90.00000000
_symmetry_Int_Tables_number   1
_chemical_formula_structural   Ta5GeB2
_chemical_formula_sum   'Ta20 Ge4 B8'
_cell_volume   450.67505094
_cell_formula_units_Z   4
loop_
 _symmetry_equiv_pos_site_id
 _symmetry_equiv_pos_as_xyz
  1  'x, y, z'
loop_
 _atom_type_symbol
 _atom_type_oxidation_number
  Ta0+  0.0
  Ge0+  0.0
  B0+  0.0
loop_
 _atom_site_type_symbol
 _atom_site_label
 _atom_site_symmetry_multiplicity
 _atom_site_fract_x
 _atom_site_fract_y
 _atom_site_fract_z
 _atom_site_occupancy
  Ta0+  Ta0  1  0.33930000  0.16070000  0.34620000  1.0
  Ta0+  Ta1  1  0.66070000  0.83930000  0.34620000  1.0
  Ta0+  Ta2  1  0.66070000  0.16070000  0.84620000  1.0
  Ta0+  Ta3  1  0.33930000  0.83930000  0.84620000  1.0
  Ta0+  Ta4  1  0.16070000  0.66070000  0.34620000  1.0
  Ta0+  Ta5  1  0.83930000  0.33930000  0.34620000  1.0
  Ta0+  Ta6  1  0.16070000  0.33930000  0.84620000  1.0
  Ta0+  Ta7  1  0.83930000  0.66070000  0.84620000  1.0
  Ta0+  Ta8  1  0.66070000  0.83930000  0.65380000  1.0
  Ta0+  Ta9  1  0.33930000  0.16070000  0.65380000  1.0
  Ta0+  Ta10  1  0.33930000  0.83930000  0.15380000  1.0
  Ta0+  Ta11  1  0.66070000  0.16070000  0.15380000  1.0
  Ta0+  Ta12  1  0.83930000  0.33930000  0.65380000  1.0
  Ta0+  Ta13  1  0.16070000  0.66070000  0.65380000  1.0
  Ta0+  Ta14  1  0.83930000  0.66070000  0.15380000  1.0
  Ta0+  Ta15  1  0.16070000  0.33930000  0.15380000  1.0
  Ta0+  Ta16  1  0.00000000  0.00000000  0.50000000  1.0
  Ta0+  Ta17  1  0.00000000  0.00000000  0.00000000  1.0
  Ta0+  Ta18  1  0.50000000  0.50000000  0.00000000  1.0
  Ta0+  Ta19  1  0.50000000  0.50000000  0.50000000  1.0
  Ge0+  Ge20  1  0.00000000  0.00000000  0.25000000  1.0
  Ge0+  Ge21  1  0.00000000  0.00000000  0.75000000  1.0
  Ge0+  Ge22  1  0.50000000  0.50000000  0.75000000  1.0
  Ge0+  Ge23  1  0.50000000  0.50000000  0.25000000  1.0
  B0+  B24  1  0.13620000  0.36380000  0.50000000  1.0
  B0+  B25  1  0.86380000  0.63620000  0.50000000  1.0
  B0+  B26  1  0.86380000  0.36380000  0.00000000  1.0
  B0+  B27  1  0.13620000  0.63620000  0.00000000  1.0
  B0+  B28  1  0.36380000  0.86380000  0.50000000  1.0
  B0+  B29  1  0.63620000  0.13620000  0.50000000  1.0
  B0+  B30  1  0.36380000  0.13620000  0.00000000  1.0
  B0+  B31  1  0.63620000  0.86380000  0.00000000  1.0
