# generated using pymatgen
data_K(NiSe)2
_symmetry_space_group_name_H-M   'P 1'
_cell_length_a   3.90890000
_cell_length_b   3.90890000
_cell_length_c   13.41420000
_cell_angle_alpha   90.00000000
_cell_angle_beta   90.00000000
_cell_angle_gamma   90.00000000
_symmetry_Int_Tables_number   1
_chemical_formula_structural   K(NiSe)2
_chemical_formula_sum   'K2 Ni4 Se4'
_cell_volume   204.96225830
_cell_formula_units_Z   2
loop_
 _symmetry_equiv_pos_site_id
 _symmetry_equiv_pos_as_xyz
  1  'x, y, z'
loop_
 _atom_type_symbol
 _atom_type_oxidation_number
  K0+  0.0
  Ni0+  0.0
  Se0+  0.0
loop_
 _atom_site_type_symbol
 _atom_site_label
 _atom_site_symmetry_multiplicity
 _atom_site_fract_x
 _atom_site_fract_y
 _atom_site_fract_z
 _atom_site_occupancy
  K0+  K0  1  0.00000000  0.00000000  0.00000000  1.0
  K0+  K1  1  0.50000000  0.50000000  0.50000000  1.0
  Ni0+  Ni2  1  0.50000000  0.00000000  0.75000000  1.0
  Ni0+  Ni3  1  0.00000000  0.50000000  0.75000000  1.0
  Ni0+  Ni4  1  0.50000000  0.00000000  0.25000000  1.0
  Ni0+  Ni5  1  0.00000000  0.50000000  0.25000000  1.0
  Se0+  Se6  1  0.00000000  0.00000000  0.64571000  1.0
  Se0+  Se7  1  0.00000000  0.00000000  0.35429000  1.0
  Se0+  Se8  1  0.50000000  0.50000000  0.14571000  1.0
  Se0+  Se9  1  0.50000000  0.50000000  0.85429000  1.0
