# generated using pymatgen
data_BiTePt
_symmetry_space_group_name_H-M   'P 1'
_cell_length_a   6.59000000
_cell_length_b   6.59000000
_cell_length_c   6.59000000
_cell_angle_alpha   90.00000000
_cell_angle_beta   90.00000000
_cell_angle_gamma   90.00000000
_symmetry_Int_Tables_number   1
_chemical_formula_structural   BiTePt
_chemical_formula_sum   'Bi4 Te4 Pt4'
_cell_volume   286.19117900
_cell_formula_units_Z   4
loop_
 _symmetry_equiv_pos_site_id
 _symmetry_equiv_pos_as_xyz
  1  'x, y, z'
loop_
 _atom_type_symbol
 _atom_type_oxidation_number
  Bi0+  0.0
  Te0+  0.0
  Pt0+  0.0
loop_
 _atom_site_type_symbol
 _atom_site_label
 _atom_site_symmetry_multiplicity
 _atom_site_fract_x
 _atom_site_fract_y
 _atom_site_fract_z
 _atom_site_occupancy
  Bi0+  Bi0  1  0.13200000  0.63200000  0.86800000  1.0
  Bi0+  Bi1  1  0.63200000  0.86800000  0.13200000  1.0
  Bi0+  Bi2  1  0.86800000  0.13200000  0.63200000  1.0
  Bi0+  Bi3  1  0.36800000  0.36800000  0.36800000  1.0
  Te0+  Te4  1  0.87300000  0.37300000  0.12700000  1.0
  Te0+  Te5  1  0.37300000  0.12700000  0.87300000  1.0
  Te0+  Te6  1  0.12700000  0.87300000  0.37300000  1.0
  Te0+  Te7  1  0.62700000  0.62700000  0.62700000  1.0
  Pt0+  Pt8  1  0.49500000  0.99500000  0.50500000  1.0
  Pt0+  Pt9  1  0.99500000  0.50500000  0.49500000  1.0
  Pt0+  Pt10  1  0.50500000  0.49500000  0.99500000  1.0
  Pt0+  Pt11  1  0.00500000  0.00500000  0.00500000  1.0
