# generated using pymatgen
data_Bi14Rh3
_symmetry_space_group_name_H-M   'P 1'
_cell_length_a   6.90020000
_cell_length_b   17.36160000
_cell_length_c   31.69440000
_cell_angle_alpha   90.00000000
_cell_angle_beta   90.00000000
_cell_angle_gamma   90.00000000
_symmetry_Int_Tables_number   1
_chemical_formula_structural   Bi14Rh3
_chemical_formula_sum   'Bi112 Rh24'
_cell_volume   3796.94196888
_cell_formula_units_Z   8
loop_
 _symmetry_equiv_pos_site_id
 _symmetry_equiv_pos_as_xyz
  1  'x, y, z'
loop_
 _atom_type_symbol
 _atom_type_oxidation_number
  Bi0+  0.0
  Rh0+  0.0
loop_
 _atom_site_type_symbol
 _atom_site_label
 _atom_site_symmetry_multiplicity
 _atom_site_fract_x
 _atom_site_fract_y
 _atom_site_fract_z
 _atom_site_occupancy
  Bi0+  Bi0  1  0.74423000  0.99538000  0.92799000  1.0
  Bi0+  Bi1  1  0.74423000  0.75462000  0.82201000  1.0
  Bi0+  Bi2  1  0.00577000  0.99538000  0.82201000  1.0
  Bi0+  Bi3  1  0.00577000  0.75462000  0.92799000  1.0
  Bi0+  Bi4  1  0.25577000  0.00462000  0.07201000  1.0
  Bi0+  Bi5  1  0.25577000  0.24538000  0.17799000  1.0
  Bi0+  Bi6  1  0.99423000  0.00462000  0.17799000  1.0
  Bi0+  Bi7  1  0.99423000  0.24538000  0.07201000  1.0
  Bi0+  Bi8  1  0.74423000  0.49538000  0.42799000  1.0
  Bi0+  Bi9  1  0.74423000  0.25462000  0.32201000  1.0
  Bi0+  Bi10  1  0.00577000  0.49538000  0.32201000  1.0
  Bi0+  Bi11  1  0.00577000  0.25462000  0.42799000  1.0
  Bi0+  Bi12  1  0.25577000  0.50462000  0.57201000  1.0
  Bi0+  Bi13  1  0.25577000  0.74538000  0.67799000  1.0
  Bi0+  Bi14  1  0.99423000  0.50462000  0.67799000  1.0
  Bi0+  Bi15  1  0.99423000  0.74538000  0.57201000  1.0
  Bi0+  Bi16  1  0.24423000  0.99538000  0.42799000  1.0
  Bi0+  Bi17  1  0.24423000  0.75462000  0.32201000  1.0
  Bi0+  Bi18  1  0.50577000  0.99538000  0.32201000  1.0
  Bi0+  Bi19  1  0.50577000  0.75462000  0.42799000  1.0
  Bi0+  Bi20  1  0.75577000  0.00462000  0.57201000  1.0
  Bi0+  Bi21  1  0.75577000  0.24538000  0.67799000  1.0
  Bi0+  Bi22  1  0.49423000  0.00462000  0.67799000  1.0
  Bi0+  Bi23  1  0.49423000  0.24538000  0.57201000  1.0
  Bi0+  Bi24  1  0.24423000  0.49538000  0.92799000  1.0
  Bi0+  Bi25  1  0.24423000  0.25462000  0.82201000  1.0
  Bi0+  Bi26  1  0.50577000  0.49538000  0.82201000  1.0
  Bi0+  Bi27  1  0.50577000  0.25462000  0.92799000  1.0
  Bi0+  Bi28  1  0.75577000  0.50462000  0.07201000  1.0
  Bi0+  Bi29  1  0.75577000  0.74538000  0.17799000  1.0
  Bi0+  Bi30  1  0.49423000  0.50462000  0.17799000  1.0
  Bi0+  Bi31  1  0.49423000  0.74538000  0.07201000  1.0
  Bi0+  Bi32  1  0.17821000  0.93395000  0.92701000  1.0
  Bi0+  Bi33  1  0.17821000  0.81605000  0.82299000  1.0
  Bi0+  Bi34  1  0.57179000  0.93395000  0.82299000  1.0
  Bi0+  Bi35  1  0.57179000  0.81605000  0.92701000  1.0
  Bi0+  Bi36  1  0.82179000  0.06605000  0.07299000  1.0
  Bi0+  Bi37  1  0.82179000  0.18395000  0.17701000  1.0
  Bi0+  Bi38  1  0.42821000  0.06605000  0.17701000  1.0
  Bi0+  Bi39  1  0.42821000  0.18395000  0.07299000  1.0
  Bi0+  Bi40  1  0.17821000  0.43395000  0.42701000  1.0
  Bi0+  Bi41  1  0.17821000  0.31605000  0.32299000  1.0
  Bi0+  Bi42  1  0.57179000  0.43395000  0.32299000  1.0
  Bi0+  Bi43  1  0.57179000  0.31605000  0.42701000  1.0
  Bi0+  Bi44  1  0.82179000  0.56605000  0.57299000  1.0
  Bi0+  Bi45  1  0.82179000  0.68395000  0.67701000  1.0
  Bi0+  Bi46  1  0.42821000  0.56605000  0.67701000  1.0
  Bi0+  Bi47  1  0.42821000  0.68395000  0.57299000  1.0
  Bi0+  Bi48  1  0.67821000  0.93395000  0.42701000  1.0
  Bi0+  Bi49  1  0.67821000  0.81605000  0.32299000  1.0
  Bi0+  Bi50  1  0.07179000  0.93395000  0.32299000  1.0
  Bi0+  Bi51  1  0.07179000  0.81605000  0.42701000  1.0
  Bi0+  Bi52  1  0.32179000  0.06605000  0.57299000  1.0
  Bi0+  Bi53  1  0.32179000  0.18395000  0.67701000  1.0
  Bi0+  Bi54  1  0.92821000  0.06605000  0.67701000  1.0
  Bi0+  Bi55  1  0.92821000  0.18395000  0.57299000  1.0
  Bi0+  Bi56  1  0.67821000  0.43395000  0.92701000  1.0
  Bi0+  Bi57  1  0.67821000  0.31605000  0.82299000  1.0
  Bi0+  Bi58  1  0.07179000  0.43395000  0.82299000  1.0
  Bi0+  Bi59  1  0.07179000  0.31605000  0.92701000  1.0
  Bi0+  Bi60  1  0.32179000  0.56605000  0.07299000  1.0
  Bi0+  Bi61  1  0.32179000  0.68395000  0.17701000  1.0
  Bi0+  Bi62  1  0.92821000  0.56605000  0.17701000  1.0
  Bi0+  Bi63  1  0.92821000  0.68395000  0.07299000  1.0
  Bi0+  Bi64  1  0.90804000  0.15730000  0.98381000  1.0
  Bi0+  Bi65  1  0.90804000  0.59270000  0.76619000  1.0
  Bi0+  Bi66  1  0.84196000  0.15730000  0.76619000  1.0
  Bi0+  Bi67  1  0.84196000  0.59270000  0.98381000  1.0
  Bi0+  Bi68  1  0.09196000  0.84270000  0.01619000  1.0
  Bi0+  Bi69  1  0.09196000  0.40730000  0.23381000  1.0
  Bi0+  Bi70  1  0.15804000  0.84270000  0.23381000  1.0
  Bi0+  Bi71  1  0.15804000  0.40730000  0.01619000  1.0
  Bi0+  Bi72  1  0.90804000  0.65730000  0.48381000  1.0
  Bi0+  Bi73  1  0.90804000  0.09270000  0.26619000  1.0
  Bi0+  Bi74  1  0.84196000  0.65730000  0.26619000  1.0
  Bi0+  Bi75  1  0.84196000  0.09270000  0.48381000  1.0
  Bi0+  Bi76  1  0.09196000  0.34270000  0.51619000  1.0
  Bi0+  Bi77  1  0.09196000  0.90730000  0.73381000  1.0
  Bi0+  Bi78  1  0.15804000  0.34270000  0.73381000  1.0
  Bi0+  Bi79  1  0.15804000  0.90730000  0.51619000  1.0
  Bi0+  Bi80  1  0.40804000  0.15730000  0.48381000  1.0
  Bi0+  Bi81  1  0.40804000  0.59270000  0.26619000  1.0
  Bi0+  Bi82  1  0.34196000  0.15730000  0.26619000  1.0
  Bi0+  Bi83  1  0.34196000  0.59270000  0.48381000  1.0
  Bi0+  Bi84  1  0.59196000  0.84270000  0.51619000  1.0
  Bi0+  Bi85  1  0.59196000  0.40730000  0.73381000  1.0
  Bi0+  Bi86  1  0.65804000  0.84270000  0.73381000  1.0
  Bi0+  Bi87  1  0.65804000  0.40730000  0.51619000  1.0
  Bi0+  Bi88  1  0.40804000  0.65730000  0.98381000  1.0
  Bi0+  Bi89  1  0.40804000  0.09270000  0.76619000  1.0
  Bi0+  Bi90  1  0.34196000  0.65730000  0.76619000  1.0
  Bi0+  Bi91  1  0.34196000  0.09270000  0.98381000  1.0
  Bi0+  Bi92  1  0.59196000  0.34270000  0.01619000  1.0
  Bi0+  Bi93  1  0.59196000  0.90730000  0.23381000  1.0
  Bi0+  Bi94  1  0.65804000  0.34270000  0.23381000  1.0
  Bi0+  Bi95  1  0.65804000  0.90730000  0.01619000  1.0
  Bi0+  Bi96  1  0.87500000  0.15645000  0.87500000  1.0
  Bi0+  Bi97  1  0.87500000  0.59355000  0.87500000  1.0
  Bi0+  Bi98  1  0.12500000  0.84355000  0.12500000  1.0
  Bi0+  Bi99  1  0.12500000  0.40645000  0.12500000  1.0
  Bi0+  Bi100  1  0.87500000  0.65645000  0.37500000  1.0
  Bi0+  Bi101  1  0.87500000  0.09355000  0.37500000  1.0
  Bi0+  Bi102  1  0.12500000  0.34355000  0.62500000  1.0
  Bi0+  Bi103  1  0.12500000  0.90645000  0.62500000  1.0
  Bi0+  Bi104  1  0.37500000  0.15645000  0.37500000  1.0
  Bi0+  Bi105  1  0.37500000  0.59355000  0.37500000  1.0
  Bi0+  Bi106  1  0.62500000  0.84355000  0.62500000  1.0
  Bi0+  Bi107  1  0.62500000  0.40645000  0.62500000  1.0
  Bi0+  Bi108  1  0.37500000  0.65645000  0.87500000  1.0
  Bi0+  Bi109  1  0.37500000  0.09355000  0.87500000  1.0
  Bi0+  Bi110  1  0.62500000  0.34355000  0.12500000  1.0
  Bi0+  Bi111  1  0.62500000  0.90645000  0.12500000  1.0
  Rh0+  Rh112  1  0.00000000  0.00000000  0.00000000  1.0
  Rh0+  Rh113  1  0.00000000  0.75000000  0.75000000  1.0
  Rh0+  Rh114  1  0.75000000  0.00000000  0.75000000  1.0
  Rh0+  Rh115  1  0.75000000  0.75000000  0.00000000  1.0
  Rh0+  Rh116  1  0.00000000  0.25000000  0.25000000  1.0
  Rh0+  Rh117  1  0.25000000  0.00000000  0.25000000  1.0
  Rh0+  Rh118  1  0.25000000  0.25000000  0.00000000  1.0
  Rh0+  Rh119  1  0.00000000  0.50000000  0.50000000  1.0
  Rh0+  Rh120  1  0.75000000  0.50000000  0.25000000  1.0
  Rh0+  Rh121  1  0.75000000  0.25000000  0.50000000  1.0
  Rh0+  Rh122  1  0.25000000  0.50000000  0.75000000  1.0
  Rh0+  Rh123  1  0.25000000  0.75000000  0.50000000  1.0
  Rh0+  Rh124  1  0.50000000  0.00000000  0.50000000  1.0
  Rh0+  Rh125  1  0.50000000  0.75000000  0.25000000  1.0
  Rh0+  Rh126  1  0.50000000  0.25000000  0.75000000  1.0
  Rh0+  Rh127  1  0.50000000  0.50000000  0.00000000  1.0
  Rh0+  Rh128  1  0.87500000  0.87500000  0.87500000  1.0
  Rh0+  Rh129  1  0.12500000  0.12500000  0.12500000  1.0
  Rh0+  Rh130  1  0.87500000  0.37500000  0.37500000  1.0
  Rh0+  Rh131  1  0.12500000  0.62500000  0.62500000  1.0
  Rh0+  Rh132  1  0.37500000  0.87500000  0.37500000  1.0
  Rh0+  Rh133  1  0.62500000  0.12500000  0.62500000  1.0
  Rh0+  Rh134  1  0.37500000  0.37500000  0.87500000  1.0
  Rh0+  Rh135  1  0.62500000  0.62500000  0.12500000  1.0
