# generated using pymatgen
data_Al2Mo3C
_symmetry_space_group_name_H-M   'P 1'
_cell_length_a   6.86600000
_cell_length_b   6.86600000
_cell_length_c   6.86600000
_cell_angle_alpha   90.00000000
_cell_angle_beta   90.00000000
_cell_angle_gamma   90.00000000
_symmetry_Int_Tables_number   1
_chemical_formula_structural   Al2Mo3C
_chemical_formula_sum   'Al8 Mo12 C4'
_cell_volume   323.67666990
_cell_formula_units_Z   4
loop_
 _symmetry_equiv_pos_site_id
 _symmetry_equiv_pos_as_xyz
  1  'x, y, z'
loop_
 _atom_type_symbol
 _atom_type_oxidation_number
  Al0+  0.0
  Mo0+  0.0
  C0+  0.0
loop_
 _atom_site_type_symbol
 _atom_site_label
 _atom_site_symmetry_multiplicity
 _atom_site_fract_x
 _atom_site_fract_y
 _atom_site_fract_z
 _atom_site_occupancy
  Al0+  Al0  1  0.18900000  0.81100000  0.31100000  1.0
  Al0+  Al1  1  0.31100000  0.18900000  0.81100000  1.0
  Al0+  Al2  1  0.81100000  0.31100000  0.18900000  1.0
  Al0+  Al3  1  0.68900000  0.68900000  0.68900000  1.0
  Al0+  Al4  1  0.56100000  0.43900000  0.93900000  1.0
  Al0+  Al5  1  0.43900000  0.93900000  0.56100000  1.0
  Al0+  Al6  1  0.93900000  0.56100000  0.43900000  1.0
  Al0+  Al7  1  0.06100000  0.06100000  0.06100000  1.0
  Mo0+  Mo8  1  0.79400000  0.95600000  0.37500000  1.0
  Mo0+  Mo9  1  0.70600000  0.04400000  0.87500000  1.0
  Mo0+  Mo10  1  0.20600000  0.45600000  0.12500000  1.0
  Mo0+  Mo11  1  0.29400000  0.54400000  0.62500000  1.0
  Mo0+  Mo12  1  0.95600000  0.37500000  0.79400000  1.0
  Mo0+  Mo13  1  0.04400000  0.87500000  0.70600000  1.0
  Mo0+  Mo14  1  0.45600000  0.12500000  0.20600000  1.0
  Mo0+  Mo15  1  0.54400000  0.62500000  0.29400000  1.0
  Mo0+  Mo16  1  0.37500000  0.79400000  0.95600000  1.0
  Mo0+  Mo17  1  0.87500000  0.70600000  0.04400000  1.0
  Mo0+  Mo18  1  0.12500000  0.20600000  0.45600000  1.0
  Mo0+  Mo19  1  0.62500000  0.29400000  0.54400000  1.0
  C0+  C20  1  0.87500000  0.12500000  0.62500000  1.0
  C0+  C21  1  0.62500000  0.87500000  0.12500000  1.0
  C0+  C22  1  0.12500000  0.62500000  0.87500000  1.0
  C0+  C23  1  0.37500000  0.37500000  0.37500000  1.0
