# generated using pymatgen
data_Ca3(GeIr)4
_symmetry_space_group_name_H-M   'P 1'
_cell_length_a   7.58240000
_cell_length_b   7.58240000
_cell_length_c   7.58240000
_cell_angle_alpha   90.00000000
_cell_angle_beta   90.00000000
_cell_angle_gamma   90.00000000
_symmetry_Int_Tables_number   1
_chemical_formula_structural   Ca3(GeIr)4
_chemical_formula_sum   'Ca6 Ge8 Ir8'
_cell_volume   435.93332908
_cell_formula_units_Z   2
loop_
 _symmetry_equiv_pos_site_id
 _symmetry_equiv_pos_as_xyz
  1  'x, y, z'
loop_
 _atom_type_symbol
 _atom_type_oxidation_number
  Ca0+  0.0
  Ge0+  0.0
  Ir0+  0.0
loop_
 _atom_site_type_symbol
 _atom_site_label
 _atom_site_symmetry_multiplicity
 _atom_site_fract_x
 _atom_site_fract_y
 _atom_site_fract_z
 _atom_site_occupancy
  Ca0+  Ca0  1  0.50000000  0.50000000  0.00000000  1.0
  Ca0+  Ca1  1  0.50000000  0.00000000  0.50000000  1.0
  Ca0+  Ca2  1  0.00000000  0.50000000  0.50000000  1.0
  Ca0+  Ca3  1  0.00000000  0.00000000  0.50000000  1.0
  Ca0+  Ca4  1  0.00000000  0.50000000  0.00000000  1.0
  Ca0+  Ca5  1  0.50000000  0.00000000  0.00000000  1.0
  Ge0+  Ge6  1  0.68771000  0.68771000  0.31229000  1.0
  Ge0+  Ge7  1  0.68771000  0.31229000  0.68771000  1.0
  Ge0+  Ge8  1  0.31229000  0.68771000  0.68771000  1.0
  Ge0+  Ge9  1  0.31229000  0.31229000  0.31229000  1.0
  Ge0+  Ge10  1  0.18771000  0.18771000  0.81229000  1.0
  Ge0+  Ge11  1  0.18771000  0.81229000  0.18771000  1.0
  Ge0+  Ge12  1  0.81229000  0.18771000  0.18771000  1.0
  Ge0+  Ge13  1  0.81229000  0.81229000  0.81229000  1.0
  Ir0+  Ir14  1  0.86614000  0.86614000  0.13386000  1.0
  Ir0+  Ir15  1  0.86614000  0.13386000  0.86614000  1.0
  Ir0+  Ir16  1  0.13386000  0.86614000  0.86614000  1.0
  Ir0+  Ir17  1  0.13386000  0.13386000  0.13386000  1.0
  Ir0+  Ir18  1  0.36614000  0.36614000  0.63386000  1.0
  Ir0+  Ir19  1  0.36614000  0.63386000  0.36614000  1.0
  Ir0+  Ir20  1  0.63386000  0.36614000  0.36614000  1.0
  Ir0+  Ir21  1  0.63386000  0.63386000  0.63386000  1.0
