# generated using pymatgen
data_Nb2Se3
_symmetry_space_group_name_H-M   'P 1'
_cell_length_a   6.50300000
_cell_length_b   3.43400000
_cell_length_c   9.21500000
_cell_angle_alpha   90.00000000
_cell_angle_beta   103.39000000
_cell_angle_gamma   90.00000000
_symmetry_Int_Tables_number   1
_chemical_formula_structural   Nb2Se3
_chemical_formula_sum   'Nb4 Se6'
_cell_volume   200.18900828
_cell_formula_units_Z   2
loop_
 _symmetry_equiv_pos_site_id
 _symmetry_equiv_pos_as_xyz
  1  'x, y, z'
loop_
 _atom_type_symbol
 _atom_type_oxidation_number
  Nb3+  3.0
  Se2-  -2.0
loop_
 _atom_site_type_symbol
 _atom_site_label
 _atom_site_symmetry_multiplicity
 _atom_site_fract_x
 _atom_site_fract_y
 _atom_site_fract_z
 _atom_site_occupancy
  Nb3+  Nb0  1  0.31470000  0.25000000  0.00360000  1.0
  Nb3+  Nb1  1  0.68530000  0.75000000  0.99640000  1.0
  Nb3+  Nb2  1  0.11380000  0.25000000  0.63690000  1.0
  Nb3+  Nb3  1  0.88620000  0.75000000  0.36310000  1.0
  Se2-  Se4  1  0.52110000  0.25000000  0.79670000  1.0
  Se2-  Se5  1  0.47890000  0.75000000  0.20330000  1.0
  Se2-  Se6  1  0.97330000  0.25000000  0.15640000  1.0
  Se2-  Se7  1  0.02670000  0.75000000  0.84360000  1.0
  Se2-  Se8  1  0.72790000  0.25000000  0.51440000  1.0
  Se2-  Se9  1  0.27210000  0.75000000  0.48560000  1.0
