# generated using pymatgen
data_Pb2Au
_symmetry_space_group_name_H-M   'P 1'
_cell_length_a   7.39000000
_cell_length_b   7.39000000
_cell_length_c   5.61000000
_cell_angle_alpha   90.00000000
_cell_angle_beta   90.00000000
_cell_angle_gamma   90.00000000
_symmetry_Int_Tables_number   1
_chemical_formula_structural   Pb2Au
_chemical_formula_sum   'Pb8 Au4'
_cell_volume   306.37388100
_cell_formula_units_Z   4
loop_
 _symmetry_equiv_pos_site_id
 _symmetry_equiv_pos_as_xyz
  1  'x, y, z'
loop_
 _atom_type_symbol
 _atom_type_oxidation_number
  Pb0+  0.0
  Au0+  0.0
loop_
 _atom_site_type_symbol
 _atom_site_label
 _atom_site_symmetry_multiplicity
 _atom_site_fract_x
 _atom_site_fract_y
 _atom_site_fract_z
 _atom_site_occupancy
  Pb0+  Pb0  1  0.65900000  0.15900000  0.50000000  1.0
  Pb0+  Pb1  1  0.34100000  0.84100000  0.50000000  1.0
  Pb0+  Pb2  1  0.34100000  0.15900000  0.00000000  1.0
  Pb0+  Pb3  1  0.65900000  0.84100000  0.00000000  1.0
  Pb0+  Pb4  1  0.15900000  0.34100000  0.50000000  1.0
  Pb0+  Pb5  1  0.84100000  0.65900000  0.50000000  1.0
  Pb0+  Pb6  1  0.15900000  0.65900000  0.00000000  1.0
  Pb0+  Pb7  1  0.84100000  0.34100000  0.00000000  1.0
  Au0+  Au8  1  0.00000000  0.00000000  0.25000000  1.0
  Au0+  Au9  1  0.00000000  0.00000000  0.75000000  1.0
  Au0+  Au10  1  0.50000000  0.50000000  0.75000000  1.0
  Au0+  Au11  1  0.50000000  0.50000000  0.25000000  1.0
