# generated using pymatgen
data_K(NiS)2
_symmetry_space_group_name_H-M   'P 1'
_cell_length_a   3.78077000
_cell_length_b   3.78077000
_cell_length_c   12.72825000
_cell_angle_alpha   90.00000000
_cell_angle_beta   90.00000000
_cell_angle_gamma   90.00000000
_symmetry_Int_Tables_number   1
_chemical_formula_structural   K(NiS)2
_chemical_formula_sum   'K2 Ni4 S4'
_cell_volume   181.94042854
_cell_formula_units_Z   2
loop_
 _symmetry_equiv_pos_site_id
 _symmetry_equiv_pos_as_xyz
  1  'x, y, z'
loop_
 _atom_type_symbol
 _atom_type_oxidation_number
  K+  1.0
  Ni1.5+  1.5
  S2-  -2.0
loop_
 _atom_site_type_symbol
 _atom_site_label
 _atom_site_symmetry_multiplicity
 _atom_site_fract_x
 _atom_site_fract_y
 _atom_site_fract_z
 _atom_site_occupancy
  K+  K0  1  0.00000000  0.00000000  0.00000000  1.0
  K+  K1  1  0.50000000  0.50000000  0.50000000  1.0
  Ni1.5+  Ni2  1  0.50000000  0.00000000  0.75000000  1.0
  Ni1.5+  Ni3  1  0.00000000  0.50000000  0.75000000  1.0
  Ni1.5+  Ni4  1  0.50000000  0.00000000  0.25000000  1.0
  Ni1.5+  Ni5  1  0.00000000  0.50000000  0.25000000  1.0
  S2-  S6  1  0.00000000  0.00000000  0.64932000  1.0
  S2-  S7  1  0.00000000  0.00000000  0.35068000  1.0
  S2-  S8  1  0.50000000  0.50000000  0.14932000  1.0
  S2-  S9  1  0.50000000  0.50000000  0.85068000  1.0
