# generated using pymatgen
data_Nb3Se4
_symmetry_space_group_name_H-M   'P 1'
_cell_length_a   10.01200000
_cell_length_b   10.01200000
_cell_length_c   3.47070000
_cell_angle_alpha   90.00000000
_cell_angle_beta   90.00000000
_cell_angle_gamma   120.00000000
_symmetry_Int_Tables_number   1
_chemical_formula_structural   Nb3Se4
_chemical_formula_sum   'Nb6 Se8'
_cell_volume   301.29324116
_cell_formula_units_Z   2
loop_
 _symmetry_equiv_pos_site_id
 _symmetry_equiv_pos_as_xyz
  1  'x, y, z'
loop_
 _atom_type_symbol
 _atom_type_oxidation_number
  Nb0+  0.0
  Se0+  0.0
loop_
 _atom_site_type_symbol
 _atom_site_label
 _atom_site_symmetry_multiplicity
 _atom_site_fract_x
 _atom_site_fract_y
 _atom_site_fract_z
 _atom_site_occupancy
  Nb0+  Nb0  1  0.61000000  0.51000000  0.25000000  1.0
  Nb0+  Nb1  1  0.90000000  0.39000000  0.25000000  1.0
  Nb0+  Nb2  1  0.49000000  0.10000000  0.25000000  1.0
  Nb0+  Nb3  1  0.39000000  0.49000000  0.75000000  1.0
  Nb0+  Nb4  1  0.10000000  0.61000000  0.75000000  1.0
  Nb0+  Nb5  1  0.51000000  0.90000000  0.75000000  1.0
  Se0+  Se6  1  0.66666667  0.33333333  0.75000000  1.0
  Se0+  Se7  1  0.33333333  0.66666667  0.25000000  1.0
  Se0+  Se8  1  0.93000000  0.66000000  0.25000000  1.0
  Se0+  Se9  1  0.73000000  0.07000000  0.25000000  1.0
  Se0+  Se10  1  0.34000000  0.27000000  0.25000000  1.0
  Se0+  Se11  1  0.07000000  0.34000000  0.75000000  1.0
  Se0+  Se12  1  0.27000000  0.93000000  0.75000000  1.0
  Se0+  Se13  1  0.66000000  0.73000000  0.75000000  1.0
