# generated using pymatgen
data_B2Ru
_symmetry_space_group_name_H-M   'P 1'
_cell_length_a   4.64500000
_cell_length_b   2.86500000
_cell_length_c   4.04500000
_cell_angle_alpha   90.00000000
_cell_angle_beta   90.00000000
_cell_angle_gamma   90.00000000
_symmetry_Int_Tables_number   1
_chemical_formula_structural   B2Ru
_chemical_formula_sum   'B4 Ru2'
_cell_volume   53.83055662
_cell_formula_units_Z   2
loop_
 _symmetry_equiv_pos_site_id
 _symmetry_equiv_pos_as_xyz
  1  'x, y, z'
loop_
 _atom_type_symbol
 _atom_type_oxidation_number
  B0+  0.0
  Ru0+  0.0
loop_
 _atom_site_type_symbol
 _atom_site_label
 _atom_site_symmetry_multiplicity
 _atom_site_fract_x
 _atom_site_fract_y
 _atom_site_fract_z
 _atom_site_occupancy
  B0+  B0  1  0.55900000  0.75000000  0.36100000  1.0
  B0+  B1  1  0.94100000  0.75000000  0.36100000  1.0
  B0+  B2  1  0.44100000  0.25000000  0.63900000  1.0
  B0+  B3  1  0.05900000  0.25000000  0.63900000  1.0
  Ru0+  Ru4  1  0.75000000  0.75000000  0.84920000  1.0
  Ru0+  Ru5  1  0.25000000  0.25000000  0.15080000  1.0
