# generated using pymatgen
data_CdSnAs2
_symmetry_space_group_name_H-M   'P 1'
_cell_length_a   6.09300000
_cell_length_b   6.09300000
_cell_length_c   11.93600000
_cell_angle_alpha   90.00000000
_cell_angle_beta   90.00000000
_cell_angle_gamma   90.00000000
_symmetry_Int_Tables_number   1
_chemical_formula_structural   CdSnAs2
_chemical_formula_sum   'Cd4 Sn4 As8'
_cell_volume   443.11981046
_cell_formula_units_Z   4
loop_
 _symmetry_equiv_pos_site_id
 _symmetry_equiv_pos_as_xyz
  1  'x, y, z'
loop_
 _atom_type_symbol
 _atom_type_oxidation_number
  Cd2+  2.0
  Sn4+  4.0
  As3-  -3.0
loop_
 _atom_site_type_symbol
 _atom_site_label
 _atom_site_symmetry_multiplicity
 _atom_site_fract_x
 _atom_site_fract_y
 _atom_site_fract_z
 _atom_site_occupancy
  Cd2+  Cd0  1  0.00000000  0.50000000  0.25000000  1.0
  Cd2+  Cd1  1  0.00000000  0.00000000  0.00000000  1.0
  Cd2+  Cd2  1  0.50000000  0.00000000  0.75000000  1.0
  Cd2+  Cd3  1  0.50000000  0.50000000  0.50000000  1.0
  Sn4+  Sn4  1  0.00000000  0.50000000  0.75000000  1.0
  Sn4+  Sn5  1  0.00000000  0.00000000  0.50000000  1.0
  Sn4+  Sn6  1  0.50000000  0.00000000  0.25000000  1.0
  Sn4+  Sn7  1  0.50000000  0.50000000  0.00000000  1.0
  As3-  As8  1  0.75000000  0.26100000  0.37500000  1.0
  As3-  As9  1  0.25000000  0.76100000  0.87500000  1.0
  As3-  As10  1  0.25000000  0.73900000  0.37500000  1.0
  As3-  As11  1  0.75000000  0.23900000  0.87500000  1.0
  As3-  As12  1  0.23900000  0.25000000  0.12500000  1.0
  As3-  As13  1  0.76100000  0.75000000  0.12500000  1.0
  As3-  As14  1  0.73900000  0.75000000  0.62500000  1.0
  As3-  As15  1  0.26100000  0.25000000  0.62500000  1.0
