# generated using pymatgen
data_B3Ru7
_symmetry_space_group_name_H-M   'P 1'
_cell_length_a   7.46700000
_cell_length_b   7.46700000
_cell_length_c   4.71000000
_cell_angle_alpha   90.00000000
_cell_angle_beta   90.00000000
_cell_angle_gamma   120.00000000
_symmetry_Int_Tables_number   1
_chemical_formula_structural   B3Ru7
_chemical_formula_sum   'B6 Ru14'
_cell_volume   227.42795250
_cell_formula_units_Z   2
loop_
 _symmetry_equiv_pos_site_id
 _symmetry_equiv_pos_as_xyz
  1  'x, y, z'
loop_
 _atom_type_symbol
 _atom_type_oxidation_number
  B0+  0.0
  Ru0+  0.0
loop_
 _atom_site_type_symbol
 _atom_site_label
 _atom_site_symmetry_multiplicity
 _atom_site_fract_x
 _atom_site_fract_y
 _atom_site_fract_z
 _atom_site_occupancy
  B0+  B0  1  0.18700000  0.37400000  0.83000000  1.0
  B0+  B1  1  0.62600000  0.81300000  0.83000000  1.0
  B0+  B2  1  0.18700000  0.81300000  0.83000000  1.0
  B0+  B3  1  0.81300000  0.62600000  0.33000000  1.0
  B0+  B4  1  0.37400000  0.18700000  0.33000000  1.0
  B0+  B5  1  0.81300000  0.18700000  0.33000000  1.0
  Ru0+  Ru6  1  0.45630000  0.91260000  0.56800000  1.0
  Ru0+  Ru7  1  0.08740000  0.54370000  0.56800000  1.0
  Ru0+  Ru8  1  0.45630000  0.54370000  0.56800000  1.0
  Ru0+  Ru9  1  0.54370000  0.08740000  0.06800000  1.0
  Ru0+  Ru10  1  0.91260000  0.45630000  0.06800000  1.0
  Ru0+  Ru11  1  0.54370000  0.45630000  0.06800000  1.0
  Ru0+  Ru12  1  0.87810000  0.75620000  0.75000000  1.0
  Ru0+  Ru13  1  0.24380000  0.12190000  0.75000000  1.0
  Ru0+  Ru14  1  0.87810000  0.12190000  0.75000000  1.0
  Ru0+  Ru15  1  0.12190000  0.24380000  0.25000000  1.0
  Ru0+  Ru16  1  0.75620000  0.87810000  0.25000000  1.0
  Ru0+  Ru17  1  0.12190000  0.87810000  0.25000000  1.0
  Ru0+  Ru18  1  0.66666667  0.33333333  0.56800000  1.0
  Ru0+  Ru19  1  0.33333333  0.66666667  0.06800000  1.0
