# generated using pymatgen
data_SiB2Mo5
_symmetry_space_group_name_H-M   'P 1'
_cell_length_a   6.01000000
_cell_length_b   6.01000000
_cell_length_c   11.04900000
_cell_angle_alpha   90.00000000
_cell_angle_beta   90.00000000
_cell_angle_gamma   90.00000000
_symmetry_Int_Tables_number   1
_chemical_formula_structural   SiB2Mo5
_chemical_formula_sum   'Si4 B8 Mo20'
_cell_volume   399.09098490
_cell_formula_units_Z   4
loop_
 _symmetry_equiv_pos_site_id
 _symmetry_equiv_pos_as_xyz
  1  'x, y, z'
loop_
 _atom_type_symbol
 _atom_type_oxidation_number
  Si0+  0.0
  B0+  0.0
  Mo0+  0.0
loop_
 _atom_site_type_symbol
 _atom_site_label
 _atom_site_symmetry_multiplicity
 _atom_site_fract_x
 _atom_site_fract_y
 _atom_site_fract_z
 _atom_site_occupancy
  Si0+  Si0  1  0.00000000  0.00000000  0.25000000  1.0
  Si0+  Si1  1  0.00000000  0.00000000  0.75000000  1.0
  Si0+  Si2  1  0.50000000  0.50000000  0.75000000  1.0
  Si0+  Si3  1  0.50000000  0.50000000  0.25000000  1.0
  B0+  B4  1  0.87500000  0.37500000  0.50000000  1.0
  B0+  B5  1  0.12500000  0.62500000  0.50000000  1.0
  B0+  B6  1  0.12500000  0.37500000  0.00000000  1.0
  B0+  B7  1  0.87500000  0.62500000  0.00000000  1.0
  B0+  B8  1  0.37500000  0.12500000  0.50000000  1.0
  B0+  B9  1  0.62500000  0.87500000  0.50000000  1.0
  B0+  B10  1  0.37500000  0.87500000  0.00000000  1.0
  B0+  B11  1  0.62500000  0.12500000  0.00000000  1.0
  Mo0+  Mo12  1  0.00000000  0.00000000  0.50000000  1.0
  Mo0+  Mo13  1  0.00000000  0.00000000  0.00000000  1.0
  Mo0+  Mo14  1  0.50000000  0.50000000  0.00000000  1.0
  Mo0+  Mo15  1  0.50000000  0.50000000  0.50000000  1.0
  Mo0+  Mo16  1  0.66530000  0.16530000  0.36120000  1.0
  Mo0+  Mo17  1  0.33470000  0.83470000  0.36120000  1.0
  Mo0+  Mo18  1  0.33470000  0.16530000  0.86120000  1.0
  Mo0+  Mo19  1  0.66530000  0.83470000  0.86120000  1.0
  Mo0+  Mo20  1  0.16530000  0.33470000  0.36120000  1.0
  Mo0+  Mo21  1  0.83470000  0.66530000  0.36120000  1.0
  Mo0+  Mo22  1  0.16530000  0.66530000  0.86120000  1.0
  Mo0+  Mo23  1  0.83470000  0.33470000  0.86120000  1.0
  Mo0+  Mo24  1  0.33470000  0.83470000  0.63880000  1.0
  Mo0+  Mo25  1  0.66530000  0.16530000  0.63880000  1.0
  Mo0+  Mo26  1  0.66530000  0.83470000  0.13880000  1.0
  Mo0+  Mo27  1  0.33470000  0.16530000  0.13880000  1.0
  Mo0+  Mo28  1  0.83470000  0.66530000  0.63880000  1.0
  Mo0+  Mo29  1  0.16530000  0.33470000  0.63880000  1.0
  Mo0+  Mo30  1  0.83470000  0.33470000  0.13880000  1.0
  Mo0+  Mo31  1  0.16530000  0.66530000  0.13880000  1.0
