# generated using pymatgen
data_GeRh
_symmetry_space_group_name_H-M   'P 1'
_cell_length_a   5.70000000
_cell_length_b   6.48000000
_cell_length_c   3.25000000
_cell_angle_alpha   90.00000000
_cell_angle_beta   90.00000000
_cell_angle_gamma   90.00000000
_symmetry_Int_Tables_number   1
_chemical_formula_structural   GeRh
_chemical_formula_sum   'Ge4 Rh4'
_cell_volume   120.04200000
_cell_formula_units_Z   4
loop_
 _symmetry_equiv_pos_site_id
 _symmetry_equiv_pos_as_xyz
  1  'x, y, z'
loop_
 _atom_type_symbol
 _atom_type_oxidation_number
  Ge4-  -4.0
  Rh4+  4.0
loop_
 _atom_site_type_symbol
 _atom_site_label
 _atom_site_symmetry_multiplicity
 _atom_site_fract_x
 _atom_site_fract_y
 _atom_site_fract_z
 _atom_site_occupancy
  Ge4-  Ge0  1  0.69100000  0.93600000  0.25000000  1.0
  Ge4-  Ge1  1  0.19100000  0.56400000  0.25000000  1.0
  Ge4-  Ge2  1  0.30900000  0.06400000  0.75000000  1.0
  Ge4-  Ge3  1  0.80900000  0.43600000  0.75000000  1.0
  Rh4+  Rh4  1  0.50700000  0.29800000  0.25000000  1.0
  Rh4+  Rh5  1  0.00700000  0.20200000  0.25000000  1.0
  Rh4+  Rh6  1  0.49300000  0.70200000  0.75000000  1.0
  Rh4+  Rh7  1  0.99300000  0.79800000  0.75000000  1.0
