# generated using pymatgen
data_Tl7Sb2
_symmetry_space_group_name_H-M   'P 1'
_cell_length_a   11.61000000
_cell_length_b   11.61000000
_cell_length_c   11.61000000
_cell_angle_alpha   90.00000000
_cell_angle_beta   90.00000000
_cell_angle_gamma   90.00000000
_symmetry_Int_Tables_number   1
_chemical_formula_structural   Tl7Sb2
_chemical_formula_sum   'Tl42 Sb12'
_cell_volume   1564.93628100
_cell_formula_units_Z   6
loop_
 _symmetry_equiv_pos_site_id
 _symmetry_equiv_pos_as_xyz
  1  'x, y, z'
loop_
 _atom_type_symbol
 _atom_type_oxidation_number
  Tl0+  0.0
  Sb0+  0.0
loop_
 _atom_site_type_symbol
 _atom_site_label
 _atom_site_symmetry_multiplicity
 _atom_site_fract_x
 _atom_site_fract_y
 _atom_site_fract_z
 _atom_site_occupancy
  Tl0+  Tl0  1  0.00000000  0.00000000  0.00000000  1.0
  Tl0+  Tl1  1  0.50000000  0.50000000  0.50000000  1.0
  Tl0+  Tl2  1  0.16700000  0.16700000  0.83300000  1.0
  Tl0+  Tl3  1  0.16700000  0.83300000  0.16700000  1.0
  Tl0+  Tl4  1  0.83300000  0.16700000  0.16700000  1.0
  Tl0+  Tl5  1  0.83300000  0.83300000  0.83300000  1.0
  Tl0+  Tl6  1  0.83300000  0.83300000  0.16700000  1.0
  Tl0+  Tl7  1  0.83300000  0.16700000  0.83300000  1.0
  Tl0+  Tl8  1  0.16700000  0.83300000  0.83300000  1.0
  Tl0+  Tl9  1  0.16700000  0.16700000  0.16700000  1.0
  Tl0+  Tl10  1  0.66700000  0.66700000  0.33300000  1.0
  Tl0+  Tl11  1  0.66700000  0.33300000  0.66700000  1.0
  Tl0+  Tl12  1  0.33300000  0.66700000  0.66700000  1.0
  Tl0+  Tl13  1  0.33300000  0.33300000  0.33300000  1.0
  Tl0+  Tl14  1  0.33300000  0.33300000  0.66700000  1.0
  Tl0+  Tl15  1  0.33300000  0.66700000  0.33300000  1.0
  Tl0+  Tl16  1  0.66700000  0.33300000  0.33300000  1.0
  Tl0+  Tl17  1  0.66700000  0.66700000  0.66700000  1.0
  Tl0+  Tl18  1  0.00000000  0.35000000  0.65000000  1.0
  Tl0+  Tl19  1  0.35000000  0.35000000  0.00000000  1.0
  Tl0+  Tl20  1  0.35000000  0.00000000  0.65000000  1.0
  Tl0+  Tl21  1  0.00000000  0.65000000  0.35000000  1.0
  Tl0+  Tl22  1  0.35000000  0.65000000  0.00000000  1.0
  Tl0+  Tl23  1  0.35000000  0.00000000  0.35000000  1.0
  Tl0+  Tl24  1  0.00000000  0.35000000  0.35000000  1.0
  Tl0+  Tl25  1  0.65000000  0.35000000  0.00000000  1.0
  Tl0+  Tl26  1  0.65000000  0.00000000  0.35000000  1.0
  Tl0+  Tl27  1  0.00000000  0.65000000  0.65000000  1.0
  Tl0+  Tl28  1  0.65000000  0.65000000  0.00000000  1.0
  Tl0+  Tl29  1  0.65000000  0.00000000  0.65000000  1.0
  Tl0+  Tl30  1  0.50000000  0.85000000  0.15000000  1.0
  Tl0+  Tl31  1  0.85000000  0.85000000  0.50000000  1.0
  Tl0+  Tl32  1  0.85000000  0.50000000  0.15000000  1.0
  Tl0+  Tl33  1  0.50000000  0.15000000  0.85000000  1.0
  Tl0+  Tl34  1  0.85000000  0.15000000  0.50000000  1.0
  Tl0+  Tl35  1  0.85000000  0.50000000  0.85000000  1.0
  Tl0+  Tl36  1  0.50000000  0.85000000  0.85000000  1.0
  Tl0+  Tl37  1  0.15000000  0.85000000  0.50000000  1.0
  Tl0+  Tl38  1  0.15000000  0.50000000  0.85000000  1.0
  Tl0+  Tl39  1  0.50000000  0.15000000  0.15000000  1.0
  Tl0+  Tl40  1  0.15000000  0.15000000  0.50000000  1.0
  Tl0+  Tl41  1  0.15000000  0.50000000  0.15000000  1.0
  Sb0+  Sb42  1  0.29000000  0.00000000  0.00000000  1.0
  Sb0+  Sb43  1  0.00000000  0.00000000  0.71000000  1.0
  Sb0+  Sb44  1  0.00000000  0.29000000  0.00000000  1.0
  Sb0+  Sb45  1  0.00000000  0.00000000  0.29000000  1.0
  Sb0+  Sb46  1  0.00000000  0.71000000  0.00000000  1.0
  Sb0+  Sb47  1  0.71000000  0.00000000  0.00000000  1.0
  Sb0+  Sb48  1  0.79000000  0.50000000  0.50000000  1.0
  Sb0+  Sb49  1  0.50000000  0.50000000  0.21000000  1.0
  Sb0+  Sb50  1  0.50000000  0.79000000  0.50000000  1.0
  Sb0+  Sb51  1  0.50000000  0.50000000  0.79000000  1.0
  Sb0+  Sb52  1  0.50000000  0.21000000  0.50000000  1.0
  Sb0+  Sb53  1  0.21000000  0.50000000  0.50000000  1.0
