# generated using pymatgen
data_SnSb
_symmetry_space_group_name_H-M   'P 1'
_cell_length_a   5.88000000
_cell_length_b   5.88000000
_cell_length_c   5.88000000
_cell_angle_alpha   90.00000000
_cell_angle_beta   90.00000000
_cell_angle_gamma   90.00000000
_symmetry_Int_Tables_number   1
_chemical_formula_structural   SnSb
_chemical_formula_sum   'Sn4 Sb4'
_cell_volume   203.29747200
_cell_formula_units_Z   4
loop_
 _symmetry_equiv_pos_site_id
 _symmetry_equiv_pos_as_xyz
  1  'x, y, z'
loop_
 _atom_type_symbol
 _atom_type_oxidation_number
  Sn0+  0.0
  Sb0+  0.0
loop_
 _atom_site_type_symbol
 _atom_site_label
 _atom_site_symmetry_multiplicity
 _atom_site_fract_x
 _atom_site_fract_y
 _atom_site_fract_z
 _atom_site_occupancy
  Sn0+  Sn0  1  0.50000000  0.50000000  0.50000000  1.0
  Sn0+  Sn1  1  0.50000000  0.00000000  0.00000000  1.0
  Sn0+  Sn2  1  0.00000000  0.50000000  0.00000000  1.0
  Sn0+  Sn3  1  0.00000000  0.00000000  0.50000000  1.0
  Sb0+  Sb4  1  0.00000000  0.00000000  0.00000000  1.0
  Sb0+  Sb5  1  0.00000000  0.50000000  0.50000000  1.0
  Sb0+  Sb6  1  0.50000000  0.00000000  0.50000000  1.0
  Sb0+  Sb7  1  0.50000000  0.50000000  0.00000000  1.0
