# generated using pymatgen
data_Ge3Rh5
_symmetry_space_group_name_H-M   'P 1'
_cell_length_a   5.42000000
_cell_length_b   10.32000000
_cell_length_c   3.96000000
_cell_angle_alpha   90.00000000
_cell_angle_beta   90.00000000
_cell_angle_gamma   90.00000000
_symmetry_Int_Tables_number   1
_chemical_formula_structural   Ge3Rh5
_chemical_formula_sum   'Ge6 Rh10'
_cell_volume   221.50022400
_cell_formula_units_Z   2
loop_
 _symmetry_equiv_pos_site_id
 _symmetry_equiv_pos_as_xyz
  1  'x, y, z'
loop_
 _atom_type_symbol
 _atom_type_oxidation_number
  Ge0+  0.0
  Rh0+  0.0
loop_
 _atom_site_type_symbol
 _atom_site_label
 _atom_site_symmetry_multiplicity
 _atom_site_fract_x
 _atom_site_fract_y
 _atom_site_fract_z
 _atom_site_occupancy
  Ge0+  Ge0  1  0.50000000  0.50000000  0.00000000  1.0
  Ge0+  Ge1  1  0.00000000  0.00000000  0.00000000  1.0
  Ge0+  Ge2  1  0.88800000  0.34800000  0.50000000  1.0
  Ge0+  Ge3  1  0.11200000  0.65200000  0.50000000  1.0
  Ge0+  Ge4  1  0.38800000  0.15200000  0.50000000  1.0
  Ge0+  Ge5  1  0.61200000  0.84800000  0.50000000  1.0
  Rh0+  Rh6  1  0.50000000  0.00000000  0.00000000  1.0
  Rh0+  Rh7  1  0.00000000  0.50000000  0.00000000  1.0
  Rh0+  Rh8  1  0.65200000  0.28000000  0.00000000  1.0
  Rh0+  Rh9  1  0.34800000  0.72000000  0.00000000  1.0
  Rh0+  Rh10  1  0.15200000  0.22000000  0.00000000  1.0
  Rh0+  Rh11  1  0.84800000  0.78000000  0.00000000  1.0
  Rh0+  Rh12  1  0.83000000  0.10700000  0.50000000  1.0
  Rh0+  Rh13  1  0.17000000  0.89300000  0.50000000  1.0
  Rh0+  Rh14  1  0.33000000  0.39300000  0.50000000  1.0
  Rh0+  Rh15  1  0.67000000  0.60700000  0.50000000  1.0
