# generated using pymatgen
data_Y3Ge13Ru4
_symmetry_space_group_name_H-M   'P 1'
_cell_length_a   8.96200000
_cell_length_b   8.96200000
_cell_length_c   8.96200000
_cell_angle_alpha   90.00000000
_cell_angle_beta   90.00000000
_cell_angle_gamma   90.00000000
_symmetry_Int_Tables_number   1
_chemical_formula_structural   Y3Ge13Ru4
_chemical_formula_sum   'Y6 Ge26 Ru8'
_cell_volume   719.80493313
_cell_formula_units_Z   2
loop_
 _symmetry_equiv_pos_site_id
 _symmetry_equiv_pos_as_xyz
  1  'x, y, z'
loop_
 _atom_type_symbol
 _atom_type_oxidation_number
  Y0+  0.0
  Ge0+  0.0
  Ru0+  0.0
loop_
 _atom_site_type_symbol
 _atom_site_label
 _atom_site_symmetry_multiplicity
 _atom_site_fract_x
 _atom_site_fract_y
 _atom_site_fract_z
 _atom_site_occupancy
  Y0+  Y0  1  0.50000000  0.00000000  0.75000000  1.0
  Y0+  Y1  1  0.00000000  0.25000000  0.50000000  1.0
  Y0+  Y2  1  0.75000000  0.50000000  0.00000000  1.0
  Y0+  Y3  1  0.50000000  0.00000000  0.25000000  1.0
  Y0+  Y4  1  0.00000000  0.75000000  0.50000000  1.0
  Y0+  Y5  1  0.25000000  0.50000000  0.00000000  1.0
  Ge0+  Ge6  1  0.50000000  0.50000000  0.50000000  1.0
  Ge0+  Ge7  1  0.00000000  0.00000000  0.00000000  1.0
  Ge0+  Ge8  1  0.65000000  0.19000000  0.50000000  1.0
  Ge0+  Ge9  1  0.81000000  0.50000000  0.65000000  1.0
  Ge0+  Ge10  1  0.50000000  0.35000000  0.81000000  1.0
  Ge0+  Ge11  1  0.35000000  0.81000000  0.50000000  1.0
  Ge0+  Ge12  1  0.19000000  0.50000000  0.35000000  1.0
  Ge0+  Ge13  1  0.50000000  0.65000000  0.19000000  1.0
  Ge0+  Ge14  1  0.65000000  0.81000000  0.50000000  1.0
  Ge0+  Ge15  1  0.81000000  0.50000000  0.35000000  1.0
  Ge0+  Ge16  1  0.35000000  0.19000000  0.50000000  1.0
  Ge0+  Ge17  1  0.19000000  0.50000000  0.65000000  1.0
  Ge0+  Ge18  1  0.50000000  0.65000000  0.81000000  1.0
  Ge0+  Ge19  1  0.50000000  0.35000000  0.19000000  1.0
  Ge0+  Ge20  1  0.15000000  0.00000000  0.69000000  1.0
  Ge0+  Ge21  1  0.31000000  0.15000000  0.00000000  1.0
  Ge0+  Ge22  1  0.00000000  0.31000000  0.85000000  1.0
  Ge0+  Ge23  1  0.85000000  0.00000000  0.31000000  1.0
  Ge0+  Ge24  1  0.69000000  0.85000000  0.00000000  1.0
  Ge0+  Ge25  1  0.00000000  0.69000000  0.15000000  1.0
  Ge0+  Ge26  1  0.15000000  0.00000000  0.31000000  1.0
  Ge0+  Ge27  1  0.31000000  0.85000000  0.00000000  1.0
  Ge0+  Ge28  1  0.85000000  0.00000000  0.69000000  1.0
  Ge0+  Ge29  1  0.69000000  0.15000000  0.00000000  1.0
  Ge0+  Ge30  1  0.00000000  0.31000000  0.15000000  1.0
  Ge0+  Ge31  1  0.00000000  0.69000000  0.85000000  1.0
  Ru0+  Ru32  1  0.75000000  0.25000000  0.75000000  1.0
  Ru0+  Ru33  1  0.25000000  0.75000000  0.25000000  1.0
  Ru0+  Ru34  1  0.75000000  0.75000000  0.25000000  1.0
  Ru0+  Ru35  1  0.25000000  0.25000000  0.75000000  1.0
  Ru0+  Ru36  1  0.25000000  0.75000000  0.75000000  1.0
  Ru0+  Ru37  1  0.75000000  0.25000000  0.25000000  1.0
  Ru0+  Ru38  1  0.25000000  0.25000000  0.25000000  1.0
  Ru0+  Ru39  1  0.75000000  0.75000000  0.75000000  1.0
