# generated using pymatgen
data_KBi
_symmetry_space_group_name_H-M   'P 1'
_cell_length_a   14.22300000
_cell_length_b   7.24800000
_cell_length_c   13.42000000
_cell_angle_alpha   90.00000000
_cell_angle_beta   113.03000000
_cell_angle_gamma   90.00000000
_symmetry_Int_Tables_number   1
_chemical_formula_structural   KBi
_chemical_formula_sum   'K16 Bi16'
_cell_volume   1273.18466500
_cell_formula_units_Z   16
loop_
 _symmetry_equiv_pos_site_id
 _symmetry_equiv_pos_as_xyz
  1  'x, y, z'
loop_
 _atom_type_symbol
 _atom_type_oxidation_number
  K0+  0.0
  Bi0+  0.0
loop_
 _atom_site_type_symbol
 _atom_site_label
 _atom_site_symmetry_multiplicity
 _atom_site_fract_x
 _atom_site_fract_y
 _atom_site_fract_z
 _atom_site_occupancy
  K0+  K0  1  0.11940000  0.38200000  0.64720000  1.0
  K0+  K1  1  0.88060000  0.88200000  0.85280000  1.0
  K0+  K2  1  0.88060000  0.61800000  0.35280000  1.0
  K0+  K3  1  0.11940000  0.11800000  0.14720000  1.0
  K0+  K4  1  0.39460000  0.19950000  0.53910000  1.0
  K0+  K5  1  0.60540000  0.69950000  0.96090000  1.0
  K0+  K6  1  0.60540000  0.80050000  0.46090000  1.0
  K0+  K7  1  0.39460000  0.30050000  0.03910000  1.0
  K0+  K8  1  0.65370000  0.42860000  0.69110000  1.0
  K0+  K9  1  0.34630000  0.92860000  0.80890000  1.0
  K0+  K10  1  0.34630000  0.57140000  0.30890000  1.0
  K0+  K11  1  0.65370000  0.07140000  0.19110000  1.0
  K0+  K12  1  0.84820000  0.13920000  0.55380000  1.0
  K0+  K13  1  0.15180000  0.63920000  0.94620000  1.0
  K0+  K14  1  0.15180000  0.86080000  0.44620000  1.0
  K0+  K15  1  0.84820000  0.36080000  0.05380000  1.0
  Bi0+  Bi16  1  0.07595000  0.87097000  0.68188000  1.0
  Bi0+  Bi17  1  0.92405000  0.37097000  0.81812000  1.0
  Bi0+  Bi18  1  0.92405000  0.12903000  0.31812000  1.0
  Bi0+  Bi19  1  0.07595000  0.62903000  0.18188000  1.0
  Bi0+  Bi20  1  0.11431000  0.12846000  0.87507000  1.0
  Bi0+  Bi21  1  0.88569000  0.62846000  0.62493000  1.0
  Bi0+  Bi22  1  0.88569000  0.87154000  0.12493000  1.0
  Bi0+  Bi23  1  0.11431000  0.37154000  0.37507000  1.0
  Bi0+  Bi24  1  0.39080000  0.43483000  0.77459000  1.0
  Bi0+  Bi25  1  0.60920000  0.93483000  0.72541000  1.0
  Bi0+  Bi26  1  0.60920000  0.56517000  0.22541000  1.0
  Bi0+  Bi27  1  0.39080000  0.06517000  0.27459000  1.0
  Bi0+  Bi28  1  0.58183000  0.20239000  0.89095000  1.0
  Bi0+  Bi29  1  0.41817000  0.70239000  0.60905000  1.0
  Bi0+  Bi30  1  0.41817000  0.79761000  0.10905000  1.0
  Bi0+  Bi31  1  0.58183000  0.29761000  0.39095000  1.0
