# generated using pymatgen
data_La3S4
_symmetry_space_group_name_H-M   'P 1'
_cell_length_a   8.72000000
_cell_length_b   8.72000000
_cell_length_c   8.72000000
_cell_angle_alpha   90.00000000
_cell_angle_beta   90.00000000
_cell_angle_gamma   90.00000000
_symmetry_Int_Tables_number   1
_chemical_formula_structural   La3S4
_chemical_formula_sum   'La12 S16'
_cell_volume   663.05484800
_cell_formula_units_Z   4
loop_
 _symmetry_equiv_pos_site_id
 _symmetry_equiv_pos_as_xyz
  1  'x, y, z'
loop_
 _atom_type_symbol
 _atom_type_oxidation_number
  La2.667+  2.667
  S2-  -2.0
loop_
 _atom_site_type_symbol
 _atom_site_label
 _atom_site_symmetry_multiplicity
 _atom_site_fract_x
 _atom_site_fract_y
 _atom_site_fract_z
 _atom_site_occupancy
  La2.667+  La0  1  0.25000000  0.37500000  0.00000000  1.0
  La2.667+  La1  1  0.75000000  0.87500000  0.50000000  1.0
  La2.667+  La2  1  0.75000000  0.12500000  0.00000000  1.0
  La2.667+  La3  1  0.25000000  0.62500000  0.50000000  1.0
  La2.667+  La4  1  0.00000000  0.25000000  0.37500000  1.0
  La2.667+  La5  1  0.50000000  0.75000000  0.87500000  1.0
  La2.667+  La6  1  0.00000000  0.75000000  0.12500000  1.0
  La2.667+  La7  1  0.50000000  0.25000000  0.62500000  1.0
  La2.667+  La8  1  0.37500000  0.00000000  0.25000000  1.0
  La2.667+  La9  1  0.87500000  0.50000000  0.75000000  1.0
  La2.667+  La10  1  0.12500000  0.00000000  0.75000000  1.0
  La2.667+  La11  1  0.62500000  0.50000000  0.25000000  1.0
  S2-  S12  1  0.17542000  0.67541000  0.82458000  1.0
  S2-  S13  1  0.82458000  0.17541000  0.67542000  1.0
  S2-  S14  1  0.67542000  0.82459000  0.17542000  1.0
  S2-  S15  1  0.32458000  0.32459000  0.32458000  1.0
  S2-  S16  1  0.57458000  0.42541000  0.92542000  1.0
  S2-  S17  1  0.42542000  0.92541000  0.57458000  1.0
  S2-  S18  1  0.92542000  0.57459000  0.42542000  1.0
  S2-  S19  1  0.07458000  0.07459000  0.07458000  1.0
  S2-  S20  1  0.67542000  0.17541000  0.32458000  1.0
  S2-  S21  1  0.32458000  0.67541000  0.17542000  1.0
  S2-  S22  1  0.17542000  0.32459000  0.67542000  1.0
  S2-  S23  1  0.82458000  0.82459000  0.82458000  1.0
  S2-  S24  1  0.07458000  0.92541000  0.42542000  1.0
  S2-  S25  1  0.92542000  0.42541000  0.07458000  1.0
  S2-  S26  1  0.42542000  0.07459000  0.92542000  1.0
  S2-  S27  1  0.57458000  0.57459000  0.57458000  1.0
