# generated using pymatgen
data_TiSiRh
_symmetry_space_group_name_H-M   'P 1'
_cell_length_a   6.24430000
_cell_length_b   3.81830000
_cell_length_c   7.22570000
_cell_angle_alpha   90.00000000
_cell_angle_beta   90.00000000
_cell_angle_gamma   90.00000000
_symmetry_Int_Tables_number   1
_chemical_formula_structural   TiSiRh
_chemical_formula_sum   'Ti4 Si4 Rh4'
_cell_volume   172.27955206
_cell_formula_units_Z   4
loop_
 _symmetry_equiv_pos_site_id
 _symmetry_equiv_pos_as_xyz
  1  'x, y, z'
loop_
 _atom_type_symbol
 _atom_type_oxidation_number
  Ti0+  0.0
  Si0+  0.0
  Rh0+  0.0
loop_
 _atom_site_type_symbol
 _atom_site_label
 _atom_site_symmetry_multiplicity
 _atom_site_fract_x
 _atom_site_fract_y
 _atom_site_fract_z
 _atom_site_occupancy
  Ti0+  Ti0  1  0.52120000  0.25000000  0.31970000  1.0
  Ti0+  Ti1  1  0.02120000  0.25000000  0.18030000  1.0
  Ti0+  Ti2  1  0.47880000  0.75000000  0.68030000  1.0
  Ti0+  Ti3  1  0.97880000  0.75000000  0.81970000  1.0
  Si0+  Si4  1  0.26510000  0.25000000  0.87710000  1.0
  Si0+  Si5  1  0.76510000  0.25000000  0.62290000  1.0
  Si0+  Si6  1  0.73490000  0.75000000  0.12290000  1.0
  Si0+  Si7  1  0.23490000  0.75000000  0.37710000  1.0
  Rh0+  Rh8  1  0.64200000  0.25000000  0.93910000  1.0
  Rh0+  Rh9  1  0.14200000  0.25000000  0.56090000  1.0
  Rh0+  Rh10  1  0.35800000  0.75000000  0.06090000  1.0
  Rh0+  Rh11  1  0.85800000  0.75000000  0.43910000  1.0
