# generated using pymatgen
data_Al13Os4
_symmetry_space_group_name_H-M   'P 1'
_cell_length_a   17.64000000
_cell_length_b   4.22800000
_cell_length_c   7.77300000
_cell_angle_alpha   90.00000000
_cell_angle_beta   115.00000000
_cell_angle_gamma   90.00000000
_symmetry_Int_Tables_number   1
_chemical_formula_structural   Al13Os4
_chemical_formula_sum   'Al26 Os8'
_cell_volume   525.40952125
_cell_formula_units_Z   2
loop_
 _symmetry_equiv_pos_site_id
 _symmetry_equiv_pos_as_xyz
  1  'x, y, z'
loop_
 _atom_type_symbol
 _atom_type_oxidation_number
  Al0+  0.0
  Os0+  0.0
loop_
 _atom_site_type_symbol
 _atom_site_label
 _atom_site_symmetry_multiplicity
 _atom_site_fract_x
 _atom_site_fract_y
 _atom_site_fract_z
 _atom_site_occupancy
  Al0+  Al0  1  0.00000000  0.50000000  0.00000000  1.0
  Al0+  Al1  1  0.50000000  0.00000000  0.00000000  1.0
  Al0+  Al2  1  0.41300000  0.00000000  0.63200000  1.0
  Al0+  Al3  1  0.58700000  0.00000000  0.36800000  1.0
  Al0+  Al4  1  0.91300000  0.50000000  0.63200000  1.0
  Al0+  Al5  1  0.08700000  0.50000000  0.36800000  1.0
  Al0+  Al6  1  0.74300000  0.00000000  0.38700000  1.0
  Al0+  Al7  1  0.25700000  0.00000000  0.61300000  1.0
  Al0+  Al8  1  0.24300000  0.50000000  0.38700000  1.0
  Al0+  Al9  1  0.75700000  0.50000000  0.61300000  1.0
  Al0+  Al10  1  0.86800000  0.00000000  0.83800000  1.0
  Al0+  Al11  1  0.13200000  0.00000000  0.16200000  1.0
  Al0+  Al12  1  0.36800000  0.50000000  0.83800000  1.0
  Al0+  Al13  1  0.63200000  0.50000000  0.16200000  1.0
  Al0+  Al14  1  0.21000000  0.00000000  0.91300000  1.0
  Al0+  Al15  1  0.79000000  0.00000000  0.08700000  1.0
  Al0+  Al16  1  0.71000000  0.50000000  0.91300000  1.0
  Al0+  Al17  1  0.29000000  0.50000000  0.08700000  1.0
  Al0+  Al18  1  0.08600000  0.00000000  0.56800000  1.0
  Al0+  Al19  1  0.91400000  0.00000000  0.43200000  1.0
  Al0+  Al20  1  0.58600000  0.50000000  0.56800000  1.0
  Al0+  Al21  1  0.41400000  0.50000000  0.43200000  1.0
  Al0+  Al22  1  0.59100000  0.00000000  0.80600000  1.0
  Al0+  Al23  1  0.40900000  0.00000000  0.19400000  1.0
  Al0+  Al24  1  0.09100000  0.50000000  0.80600000  1.0
  Al0+  Al25  1  0.90900000  0.50000000  0.19400000  1.0
  Os0+  Os26  1  0.70600000  0.00000000  0.70850000  1.0
  Os0+  Os27  1  0.29400000  0.00000000  0.29150000  1.0
  Os0+  Os28  1  0.20600000  0.50000000  0.70850000  1.0
  Os0+  Os29  1  0.79400000  0.50000000  0.29150000  1.0
  Os0+  Os30  1  0.00810000  0.00000000  0.80530000  1.0
  Os0+  Os31  1  0.99190000  0.00000000  0.19470000  1.0
  Os0+  Os32  1  0.50810000  0.50000000  0.80530000  1.0
  Os0+  Os33  1  0.49190000  0.50000000  0.19470000  1.0
