# generated using pymatgen
data_Al6Re
_symmetry_space_group_name_H-M   'P 1'
_cell_length_a   6.61170000
_cell_length_b   7.60910000
_cell_length_c   9.02300000
_cell_angle_alpha   90.00000000
_cell_angle_beta   90.00000000
_cell_angle_gamma   90.00000000
_symmetry_Int_Tables_number   1
_chemical_formula_structural   Al6Re
_chemical_formula_sum   'Al24 Re4'
_cell_volume   453.93888722
_cell_formula_units_Z   4
loop_
 _symmetry_equiv_pos_site_id
 _symmetry_equiv_pos_as_xyz
  1  'x, y, z'
loop_
 _atom_type_symbol
 _atom_type_oxidation_number
  Al0+  0.0
  Re0+  0.0
loop_
 _atom_site_type_symbol
 _atom_site_label
 _atom_site_symmetry_multiplicity
 _atom_site_fract_x
 _atom_site_fract_y
 _atom_site_fract_z
 _atom_site_occupancy
  Al0+  Al0  1  0.00000000  0.67430000  0.50000000  1.0
  Al0+  Al1  1  0.00000000  0.67430000  0.00000000  1.0
  Al0+  Al2  1  0.00000000  0.32570000  0.50000000  1.0
  Al0+  Al3  1  0.00000000  0.32570000  0.00000000  1.0
  Al0+  Al4  1  0.50000000  0.17430000  0.50000000  1.0
  Al0+  Al5  1  0.50000000  0.17430000  0.00000000  1.0
  Al0+  Al6  1  0.50000000  0.82570000  0.50000000  1.0
  Al0+  Al7  1  0.50000000  0.82570000  0.00000000  1.0
  Al0+  Al8  1  0.13380000  0.00000000  0.10300000  1.0
  Al0+  Al9  1  0.86620000  0.00000000  0.89700000  1.0
  Al0+  Al10  1  0.13380000  0.00000000  0.39700000  1.0
  Al0+  Al11  1  0.86620000  0.00000000  0.60300000  1.0
  Al0+  Al12  1  0.63380000  0.50000000  0.10300000  1.0
  Al0+  Al13  1  0.36620000  0.50000000  0.89700000  1.0
  Al0+  Al14  1  0.63380000  0.50000000  0.39700000  1.0
  Al0+  Al15  1  0.36620000  0.50000000  0.60300000  1.0
  Al0+  Al16  1  0.71580000  0.31820000  0.75000000  1.0
  Al0+  Al17  1  0.28420000  0.31820000  0.25000000  1.0
  Al0+  Al18  1  0.28420000  0.68180000  0.25000000  1.0
  Al0+  Al19  1  0.71580000  0.68180000  0.75000000  1.0
  Al0+  Al20  1  0.21580000  0.81820000  0.75000000  1.0
  Al0+  Al21  1  0.78420000  0.81820000  0.25000000  1.0
  Al0+  Al22  1  0.78420000  0.18180000  0.25000000  1.0
  Al0+  Al23  1  0.21580000  0.18180000  0.75000000  1.0
  Re0+  Re24  1  0.45550000  0.00000000  0.25000000  1.0
  Re0+  Re25  1  0.54450000  0.00000000  0.75000000  1.0
  Re0+  Re26  1  0.95550000  0.50000000  0.25000000  1.0
  Re0+  Re27  1  0.04450000  0.50000000  0.75000000  1.0
