# generated using pymatgen
data_CaAu5
_symmetry_space_group_name_H-M   'P 1'
_cell_length_a   7.74700000
_cell_length_b   7.74700000
_cell_length_c   7.74700000
_cell_angle_alpha   90.00000000
_cell_angle_beta   90.00000000
_cell_angle_gamma   90.00000000
_symmetry_Int_Tables_number   1
_chemical_formula_structural   CaAu5
_chemical_formula_sum   'Ca4 Au20'
_cell_volume   464.94402172
_cell_formula_units_Z   4
loop_
 _symmetry_equiv_pos_site_id
 _symmetry_equiv_pos_as_xyz
  1  'x, y, z'
loop_
 _atom_type_symbol
 _atom_type_oxidation_number
  Ca0+  0.0
  Au0+  0.0
loop_
 _atom_site_type_symbol
 _atom_site_label
 _atom_site_symmetry_multiplicity
 _atom_site_fract_x
 _atom_site_fract_y
 _atom_site_fract_z
 _atom_site_occupancy
  Ca0+  Ca0  1  0.00000000  0.00000000  0.00000000  1.0
  Ca0+  Ca1  1  0.00000000  0.50000000  0.50000000  1.0
  Ca0+  Ca2  1  0.50000000  0.00000000  0.50000000  1.0
  Ca0+  Ca3  1  0.50000000  0.50000000  0.00000000  1.0
  Au0+  Au4  1  0.75000000  0.75000000  0.25000000  1.0
  Au0+  Au5  1  0.75000000  0.25000000  0.75000000  1.0
  Au0+  Au6  1  0.25000000  0.75000000  0.75000000  1.0
  Au0+  Au7  1  0.25000000  0.25000000  0.25000000  1.0
  Au0+  Au8  1  0.37500000  0.37500000  0.62500000  1.0
  Au0+  Au9  1  0.37500000  0.62500000  0.37500000  1.0
  Au0+  Au10  1  0.62500000  0.37500000  0.37500000  1.0
  Au0+  Au11  1  0.62500000  0.62500000  0.62500000  1.0
  Au0+  Au12  1  0.37500000  0.87500000  0.12500000  1.0
  Au0+  Au13  1  0.37500000  0.12500000  0.87500000  1.0
  Au0+  Au14  1  0.62500000  0.87500000  0.87500000  1.0
  Au0+  Au15  1  0.62500000  0.12500000  0.12500000  1.0
  Au0+  Au16  1  0.87500000  0.37500000  0.12500000  1.0
  Au0+  Au17  1  0.87500000  0.62500000  0.87500000  1.0
  Au0+  Au18  1  0.12500000  0.37500000  0.87500000  1.0
  Au0+  Au19  1  0.12500000  0.62500000  0.12500000  1.0
  Au0+  Au20  1  0.87500000  0.87500000  0.62500000  1.0
  Au0+  Au21  1  0.87500000  0.12500000  0.37500000  1.0
  Au0+  Au22  1  0.12500000  0.87500000  0.37500000  1.0
  Au0+  Au23  1  0.12500000  0.12500000  0.62500000  1.0
