# generated using pymatgen
data_Be2Nb
_symmetry_space_group_name_H-M   'P 1'
_cell_length_a   6.54200000
_cell_length_b   6.54200000
_cell_length_c   6.54200000
_cell_angle_alpha   90.00000000
_cell_angle_beta   90.00000000
_cell_angle_gamma   90.00000000
_symmetry_Int_Tables_number   1
_chemical_formula_structural   Be2Nb
_chemical_formula_sum   'Be16 Nb8'
_cell_volume   279.98297209
_cell_formula_units_Z   8
loop_
 _symmetry_equiv_pos_site_id
 _symmetry_equiv_pos_as_xyz
  1  'x, y, z'
loop_
 _atom_type_symbol
 _atom_type_oxidation_number
  Be0+  0.0
  Nb0+  0.0
loop_
 _atom_site_type_symbol
 _atom_site_label
 _atom_site_symmetry_multiplicity
 _atom_site_fract_x
 _atom_site_fract_y
 _atom_site_fract_z
 _atom_site_occupancy
  Be0+  Be0  1  0.87500000  0.87500000  0.62500000  1.0
  Be0+  Be1  1  0.87500000  0.62500000  0.87500000  1.0
  Be0+  Be2  1  0.62500000  0.87500000  0.87500000  1.0
  Be0+  Be3  1  0.62500000  0.62500000  0.62500000  1.0
  Be0+  Be4  1  0.37500000  0.37500000  0.62500000  1.0
  Be0+  Be5  1  0.37500000  0.62500000  0.37500000  1.0
  Be0+  Be6  1  0.62500000  0.37500000  0.37500000  1.0
  Be0+  Be7  1  0.87500000  0.37500000  0.12500000  1.0
  Be0+  Be8  1  0.87500000  0.12500000  0.37500000  1.0
  Be0+  Be9  1  0.62500000  0.12500000  0.12500000  1.0
  Be0+  Be10  1  0.37500000  0.87500000  0.12500000  1.0
  Be0+  Be11  1  0.37500000  0.12500000  0.87500000  1.0
  Be0+  Be12  1  0.12500000  0.87500000  0.37500000  1.0
  Be0+  Be13  1  0.12500000  0.62500000  0.12500000  1.0
  Be0+  Be14  1  0.12500000  0.37500000  0.87500000  1.0
  Be0+  Be15  1  0.12500000  0.12500000  0.62500000  1.0
  Nb0+  Nb16  1  0.25000000  0.25000000  0.25000000  1.0
  Nb0+  Nb17  1  0.00000000  0.00000000  0.00000000  1.0
  Nb0+  Nb18  1  0.25000000  0.75000000  0.75000000  1.0
  Nb0+  Nb19  1  0.00000000  0.50000000  0.50000000  1.0
  Nb0+  Nb20  1  0.75000000  0.25000000  0.75000000  1.0
  Nb0+  Nb21  1  0.50000000  0.00000000  0.50000000  1.0
  Nb0+  Nb22  1  0.75000000  0.75000000  0.25000000  1.0
  Nb0+  Nb23  1  0.50000000  0.50000000  0.00000000  1.0
