# generated using pymatgen
data_Be2Nb3
_symmetry_space_group_name_H-M   'P 1'
_cell_length_a   6.49000000
_cell_length_b   6.49000000
_cell_length_c   3.35000000
_cell_angle_alpha   90.00000000
_cell_angle_beta   90.00000000
_cell_angle_gamma   90.00000000
_symmetry_Int_Tables_number   1
_chemical_formula_structural   Be2Nb3
_chemical_formula_sum   'Be4 Nb6'
_cell_volume   141.10233500
_cell_formula_units_Z   2
loop_
 _symmetry_equiv_pos_site_id
 _symmetry_equiv_pos_as_xyz
  1  'x, y, z'
loop_
 _atom_type_symbol
 _atom_type_oxidation_number
  Be0+  0.0
  Nb0+  0.0
loop_
 _atom_site_type_symbol
 _atom_site_label
 _atom_site_symmetry_multiplicity
 _atom_site_fract_x
 _atom_site_fract_y
 _atom_site_fract_z
 _atom_site_occupancy
  Be0+  Be0  1  0.38300000  0.88300000  0.00000000  1.0
  Be0+  Be1  1  0.61700000  0.11700000  0.00000000  1.0
  Be0+  Be2  1  0.11700000  0.38300000  0.00000000  1.0
  Be0+  Be3  1  0.88300000  0.61700000  0.00000000  1.0
  Nb0+  Nb4  1  0.50000000  0.50000000  0.00000000  1.0
  Nb0+  Nb5  1  0.00000000  0.00000000  0.00000000  1.0
  Nb0+  Nb6  1  0.17940000  0.67940000  0.50000000  1.0
  Nb0+  Nb7  1  0.82060000  0.32060000  0.50000000  1.0
  Nb0+  Nb8  1  0.32060000  0.17940000  0.50000000  1.0
  Nb0+  Nb9  1  0.67940000  0.82060000  0.50000000  1.0
