# generated using pymatgen
data_Be17Nb2
_symmetry_space_group_name_H-M   'P 1'
_cell_length_a   7.40900000
_cell_length_b   7.40900000
_cell_length_c   10.84000000
_cell_angle_alpha   90.00000000
_cell_angle_beta   90.00000000
_cell_angle_gamma   120.00000000
_symmetry_Int_Tables_number   1
_chemical_formula_structural   Be17Nb2
_chemical_formula_sum   'Be51 Nb6'
_cell_volume   515.32249814
_cell_formula_units_Z   3
loop_
 _symmetry_equiv_pos_site_id
 _symmetry_equiv_pos_as_xyz
  1  'x, y, z'
loop_
 _atom_type_symbol
 _atom_type_oxidation_number
  Be0+  0.0
  Nb0+  0.0
loop_
 _atom_site_type_symbol
 _atom_site_label
 _atom_site_symmetry_multiplicity
 _atom_site_fract_x
 _atom_site_fract_y
 _atom_site_fract_z
 _atom_site_occupancy
  Be0+  Be0  1  0.00000000  0.00000000  0.60300000  1.0
  Be0+  Be1  1  0.00000000  0.00000000  0.39700000  1.0
  Be0+  Be2  1  0.66666667  0.33333333  0.93633333  1.0
  Be0+  Be3  1  0.66666667  0.33333333  0.73033333  1.0
  Be0+  Be4  1  0.33333333  0.66666667  0.26966667  1.0
  Be0+  Be5  1  0.33333333  0.66666667  0.06366667  1.0
  Be0+  Be6  1  0.50000000  0.00000000  0.00000000  1.0
  Be0+  Be7  1  0.50000000  0.50000000  0.00000000  1.0
  Be0+  Be8  1  0.00000000  0.50000000  0.00000000  1.0
  Be0+  Be9  1  0.16666667  0.33333333  0.33333333  1.0
  Be0+  Be10  1  0.16666667  0.83333333  0.33333333  1.0
  Be0+  Be11  1  0.66666667  0.83333333  0.33333333  1.0
  Be0+  Be12  1  0.83333333  0.66666667  0.66666667  1.0
  Be0+  Be13  1  0.83333333  0.16666667  0.66666667  1.0
  Be0+  Be14  1  0.33333333  0.16666667  0.66666667  1.0
  Be0+  Be15  1  0.00000000  0.70300000  0.50000000  1.0
  Be0+  Be16  1  0.70300000  0.00000000  0.50000000  1.0
  Be0+  Be17  1  0.29700000  0.29700000  0.50000000  1.0
  Be0+  Be18  1  0.00000000  0.29700000  0.50000000  1.0
  Be0+  Be19  1  0.29700000  0.00000000  0.50000000  1.0
  Be0+  Be20  1  0.70300000  0.70300000  0.50000000  1.0
  Be0+  Be21  1  0.66666667  0.03633333  0.83333333  1.0
  Be0+  Be22  1  0.36966667  0.33333333  0.83333333  1.0
  Be0+  Be23  1  0.96366667  0.63033333  0.83333333  1.0
  Be0+  Be24  1  0.66666667  0.63033333  0.83333333  1.0
  Be0+  Be25  1  0.96366667  0.33333333  0.83333333  1.0
  Be0+  Be26  1  0.36966667  0.03633333  0.83333333  1.0
  Be0+  Be27  1  0.33333333  0.36966667  0.16666667  1.0
  Be0+  Be28  1  0.03633333  0.66666667  0.16666667  1.0
  Be0+  Be29  1  0.63033333  0.96366667  0.16666667  1.0
  Be0+  Be30  1  0.33333333  0.96366667  0.16666667  1.0
  Be0+  Be31  1  0.63033333  0.66666667  0.16666667  1.0
  Be0+  Be32  1  0.03633333  0.36966667  0.16666667  1.0
  Be0+  Be33  1  0.32800000  0.16400000  0.00600000  1.0
  Be0+  Be34  1  0.83600000  0.67200000  0.00600000  1.0
  Be0+  Be35  1  0.83600000  0.16400000  0.00600000  1.0
  Be0+  Be36  1  0.67200000  0.83600000  0.99400000  1.0
  Be0+  Be37  1  0.16400000  0.32800000  0.99400000  1.0
  Be0+  Be38  1  0.16400000  0.83600000  0.99400000  1.0
  Be0+  Be39  1  0.99466667  0.49733333  0.33933333  1.0
  Be0+  Be40  1  0.50266667  0.00533333  0.33933333  1.0
  Be0+  Be41  1  0.50266667  0.49733333  0.33933333  1.0
  Be0+  Be42  1  0.33866667  0.16933333  0.32733333  1.0
  Be0+  Be43  1  0.83066667  0.66133333  0.32733333  1.0
  Be0+  Be44  1  0.83066667  0.16933333  0.32733333  1.0
  Be0+  Be45  1  0.66133333  0.83066667  0.67266667  1.0
  Be0+  Be46  1  0.16933333  0.33866667  0.67266667  1.0
  Be0+  Be47  1  0.16933333  0.83066667  0.67266667  1.0
  Be0+  Be48  1  0.00533333  0.50266667  0.66066667  1.0
  Be0+  Be49  1  0.49733333  0.99466667  0.66066667  1.0
  Be0+  Be50  1  0.49733333  0.50266667  0.66066667  1.0
  Nb0+  Nb51  1  0.00000000  0.00000000  0.84010000  1.0
  Nb0+  Nb52  1  0.00000000  0.00000000  0.15990000  1.0
  Nb0+  Nb53  1  0.66666667  0.33333333  0.17343333  1.0
  Nb0+  Nb54  1  0.66666667  0.33333333  0.49323333  1.0
  Nb0+  Nb55  1  0.33333333  0.66666667  0.50676667  1.0
  Nb0+  Nb56  1  0.33333333  0.66666667  0.82656667  1.0
