# generated using pymatgen
data_NiBi3
_symmetry_space_group_name_H-M   'P 1'
_cell_length_a   8.88400000
_cell_length_b   4.10100000
_cell_length_c   11.48500000
_cell_angle_alpha   90.00000000
_cell_angle_beta   90.00000000
_cell_angle_gamma   90.00000000
_symmetry_Int_Tables_number   1
_chemical_formula_structural   NiBi3
_chemical_formula_sum   'Ni4 Bi12'
_cell_volume   418.43626674
_cell_formula_units_Z   4
loop_
 _symmetry_equiv_pos_site_id
 _symmetry_equiv_pos_as_xyz
  1  'x, y, z'
loop_
 _atom_type_symbol
 _atom_type_oxidation_number
  Ni0+  0.0
  Bi0+  0.0
loop_
 _atom_site_type_symbol
 _atom_site_label
 _atom_site_symmetry_multiplicity
 _atom_site_fract_x
 _atom_site_fract_y
 _atom_site_fract_z
 _atom_site_occupancy
  Ni0+  Ni0  1  0.59500000  0.25000000  0.97900000  1.0
  Ni0+  Ni1  1  0.09500000  0.25000000  0.52100000  1.0
  Ni0+  Ni2  1  0.40500000  0.75000000  0.02100000  1.0
  Ni0+  Ni3  1  0.90500000  0.75000000  0.47900000  1.0
  Bi0+  Bi4  1  0.79800000  0.25000000  0.61000000  1.0
  Bi0+  Bi5  1  0.29800000  0.25000000  0.89000000  1.0
  Bi0+  Bi6  1  0.20200000  0.75000000  0.39000000  1.0
  Bi0+  Bi7  1  0.70200000  0.75000000  0.11000000  1.0
  Bi0+  Bi8  1  0.87900000  0.25000000  0.91200000  1.0
  Bi0+  Bi9  1  0.37900000  0.25000000  0.58800000  1.0
  Bi0+  Bi10  1  0.12100000  0.75000000  0.08800000  1.0
  Bi0+  Bi11  1  0.62100000  0.75000000  0.41200000  1.0
  Bi0+  Bi12  1  0.91200000  0.25000000  0.32200000  1.0
  Bi0+  Bi13  1  0.41200000  0.25000000  0.17800000  1.0
  Bi0+  Bi14  1  0.08800000  0.75000000  0.67800000  1.0
  Bi0+  Bi15  1  0.58800000  0.75000000  0.82200000  1.0
