# generated using pymatgen
data_Bi4Rh
_symmetry_space_group_name_H-M   'P 1'
_cell_length_a   14.92800000
_cell_length_b   14.92800000
_cell_length_c   14.92800000
_cell_angle_alpha   90.00000000
_cell_angle_beta   90.00000000
_cell_angle_gamma   90.00000000
_symmetry_Int_Tables_number   1
_chemical_formula_structural   Bi4Rh
_chemical_formula_sum   'Bi96 Rh24'
_cell_volume   3326.63290675
_cell_formula_units_Z   24
loop_
 _symmetry_equiv_pos_site_id
 _symmetry_equiv_pos_as_xyz
  1  'x, y, z'
loop_
 _atom_type_symbol
 _atom_type_oxidation_number
  Bi0+  0.0
  Rh0+  0.0
loop_
 _atom_site_type_symbol
 _atom_site_label
 _atom_site_symmetry_multiplicity
 _atom_site_fract_x
 _atom_site_fract_y
 _atom_site_fract_z
 _atom_site_occupancy
  Bi0+  Bi0  1  0.59600000  0.68500000  0.77400000  1.0
  Bi0+  Bi1  1  0.90400000  0.31500000  0.27400000  1.0
  Bi0+  Bi2  1  0.40400000  0.18500000  0.72600000  1.0
  Bi0+  Bi3  1  0.09600000  0.81500000  0.22600000  1.0
  Bi0+  Bi4  1  0.68500000  0.77400000  0.59600000  1.0
  Bi0+  Bi5  1  0.31500000  0.27400000  0.90400000  1.0
  Bi0+  Bi6  1  0.18500000  0.72600000  0.40400000  1.0
  Bi0+  Bi7  1  0.81500000  0.22600000  0.09600000  1.0
  Bi0+  Bi8  1  0.77400000  0.59600000  0.68500000  1.0
  Bi0+  Bi9  1  0.27400000  0.90400000  0.31500000  1.0
  Bi0+  Bi10  1  0.72600000  0.40400000  0.18500000  1.0
  Bi0+  Bi11  1  0.22600000  0.09600000  0.81500000  1.0
  Bi0+  Bi12  1  0.90400000  0.81500000  0.72600000  1.0
  Bi0+  Bi13  1  0.59600000  0.18500000  0.22600000  1.0
  Bi0+  Bi14  1  0.09600000  0.31500000  0.77400000  1.0
  Bi0+  Bi15  1  0.40400000  0.68500000  0.27400000  1.0
  Bi0+  Bi16  1  0.81500000  0.72600000  0.90400000  1.0
  Bi0+  Bi17  1  0.18500000  0.22600000  0.59600000  1.0
  Bi0+  Bi18  1  0.31500000  0.77400000  0.09600000  1.0
  Bi0+  Bi19  1  0.68500000  0.27400000  0.40400000  1.0
  Bi0+  Bi20  1  0.72600000  0.90400000  0.81500000  1.0
  Bi0+  Bi21  1  0.22600000  0.59600000  0.18500000  1.0
  Bi0+  Bi22  1  0.77400000  0.09600000  0.31500000  1.0
  Bi0+  Bi23  1  0.27400000  0.40400000  0.68500000  1.0
  Bi0+  Bi24  1  0.34600000  0.52400000  0.43500000  1.0
  Bi0+  Bi25  1  0.65400000  0.02400000  0.06500000  1.0
  Bi0+  Bi26  1  0.15400000  0.47600000  0.93500000  1.0
  Bi0+  Bi27  1  0.84600000  0.97600000  0.56500000  1.0
  Bi0+  Bi28  1  0.43500000  0.34600000  0.52400000  1.0
  Bi0+  Bi29  1  0.06500000  0.65400000  0.02400000  1.0
  Bi0+  Bi30  1  0.93500000  0.15400000  0.47600000  1.0
  Bi0+  Bi31  1  0.56500000  0.84600000  0.97600000  1.0
  Bi0+  Bi32  1  0.52400000  0.43500000  0.34600000  1.0
  Bi0+  Bi33  1  0.02400000  0.06500000  0.65400000  1.0
  Bi0+  Bi34  1  0.47600000  0.93500000  0.15400000  1.0
  Bi0+  Bi35  1  0.97600000  0.56500000  0.84600000  1.0
  Bi0+  Bi36  1  0.65400000  0.47600000  0.56500000  1.0
  Bi0+  Bi37  1  0.34600000  0.97600000  0.93500000  1.0
  Bi0+  Bi38  1  0.84600000  0.52400000  0.06500000  1.0
  Bi0+  Bi39  1  0.15400000  0.02400000  0.43500000  1.0
  Bi0+  Bi40  1  0.56500000  0.65400000  0.47600000  1.0
  Bi0+  Bi41  1  0.93500000  0.34600000  0.97600000  1.0
  Bi0+  Bi42  1  0.06500000  0.84600000  0.52400000  1.0
  Bi0+  Bi43  1  0.43500000  0.15400000  0.02400000  1.0
  Bi0+  Bi44  1  0.47600000  0.56500000  0.65400000  1.0
  Bi0+  Bi45  1  0.97600000  0.93500000  0.34600000  1.0
  Bi0+  Bi46  1  0.52400000  0.06500000  0.84600000  1.0
  Bi0+  Bi47  1  0.02400000  0.43500000  0.15400000  1.0
  Bi0+  Bi48  1  0.09600000  0.18500000  0.27400000  1.0
  Bi0+  Bi49  1  0.40400000  0.81500000  0.77400000  1.0
  Bi0+  Bi50  1  0.90400000  0.68500000  0.22600000  1.0
  Bi0+  Bi51  1  0.59600000  0.31500000  0.72600000  1.0
  Bi0+  Bi52  1  0.18500000  0.27400000  0.09600000  1.0
  Bi0+  Bi53  1  0.81500000  0.77400000  0.40400000  1.0
  Bi0+  Bi54  1  0.68500000  0.22600000  0.90400000  1.0
  Bi0+  Bi55  1  0.31500000  0.72600000  0.59600000  1.0
  Bi0+  Bi56  1  0.27400000  0.09600000  0.18500000  1.0
  Bi0+  Bi57  1  0.77400000  0.40400000  0.81500000  1.0
  Bi0+  Bi58  1  0.22600000  0.90400000  0.68500000  1.0
  Bi0+  Bi59  1  0.72600000  0.59600000  0.31500000  1.0
  Bi0+  Bi60  1  0.40400000  0.31500000  0.22600000  1.0
  Bi0+  Bi61  1  0.09600000  0.68500000  0.72600000  1.0
  Bi0+  Bi62  1  0.59600000  0.81500000  0.27400000  1.0
  Bi0+  Bi63  1  0.90400000  0.18500000  0.77400000  1.0
  Bi0+  Bi64  1  0.31500000  0.22600000  0.40400000  1.0
  Bi0+  Bi65  1  0.68500000  0.72600000  0.09600000  1.0
  Bi0+  Bi66  1  0.81500000  0.27400000  0.59600000  1.0
  Bi0+  Bi67  1  0.18500000  0.77400000  0.90400000  1.0
  Bi0+  Bi68  1  0.22600000  0.40400000  0.31500000  1.0
  Bi0+  Bi69  1  0.72600000  0.09600000  0.68500000  1.0
  Bi0+  Bi70  1  0.27400000  0.59600000  0.81500000  1.0
  Bi0+  Bi71  1  0.77400000  0.90400000  0.18500000  1.0
  Bi0+  Bi72  1  0.84600000  0.02400000  0.93500000  1.0
  Bi0+  Bi73  1  0.15400000  0.52400000  0.56500000  1.0
  Bi0+  Bi74  1  0.65400000  0.97600000  0.43500000  1.0
  Bi0+  Bi75  1  0.34600000  0.47600000  0.06500000  1.0
  Bi0+  Bi76  1  0.93500000  0.84600000  0.02400000  1.0
  Bi0+  Bi77  1  0.56500000  0.15400000  0.52400000  1.0
  Bi0+  Bi78  1  0.43500000  0.65400000  0.97600000  1.0
  Bi0+  Bi79  1  0.06500000  0.34600000  0.47600000  1.0
  Bi0+  Bi80  1  0.02400000  0.93500000  0.84600000  1.0
  Bi0+  Bi81  1  0.52400000  0.56500000  0.15400000  1.0
  Bi0+  Bi82  1  0.97600000  0.43500000  0.65400000  1.0
  Bi0+  Bi83  1  0.47600000  0.06500000  0.34600000  1.0
  Bi0+  Bi84  1  0.15400000  0.97600000  0.06500000  1.0
  Bi0+  Bi85  1  0.84600000  0.47600000  0.43500000  1.0
  Bi0+  Bi86  1  0.34600000  0.02400000  0.56500000  1.0
  Bi0+  Bi87  1  0.65400000  0.52400000  0.93500000  1.0
  Bi0+  Bi88  1  0.06500000  0.15400000  0.97600000  1.0
  Bi0+  Bi89  1  0.43500000  0.84600000  0.47600000  1.0
  Bi0+  Bi90  1  0.56500000  0.34600000  0.02400000  1.0
  Bi0+  Bi91  1  0.93500000  0.65400000  0.52400000  1.0
  Bi0+  Bi92  1  0.97600000  0.06500000  0.15400000  1.0
  Bi0+  Bi93  1  0.47600000  0.43500000  0.84600000  1.0
  Bi0+  Bi94  1  0.02400000  0.56500000  0.34600000  1.0
  Bi0+  Bi95  1  0.52400000  0.93500000  0.65400000  1.0
  Rh0+  Rh96  1  0.50000000  0.25000000  0.87500000  1.0
  Rh0+  Rh97  1  0.00000000  0.75000000  0.37500000  1.0
  Rh0+  Rh98  1  0.50000000  0.75000000  0.62500000  1.0
  Rh0+  Rh99  1  0.00000000  0.25000000  0.12500000  1.0
  Rh0+  Rh100  1  0.25000000  0.87500000  0.50000000  1.0
  Rh0+  Rh101  1  0.75000000  0.37500000  0.00000000  1.0
  Rh0+  Rh102  1  0.75000000  0.62500000  0.50000000  1.0
  Rh0+  Rh103  1  0.25000000  0.12500000  0.00000000  1.0
  Rh0+  Rh104  1  0.87500000  0.50000000  0.25000000  1.0
  Rh0+  Rh105  1  0.37500000  0.00000000  0.75000000  1.0
  Rh0+  Rh106  1  0.62500000  0.50000000  0.75000000  1.0
  Rh0+  Rh107  1  0.12500000  0.00000000  0.25000000  1.0
  Rh0+  Rh108  1  0.00000000  0.25000000  0.62500000  1.0
  Rh0+  Rh109  1  0.50000000  0.75000000  0.12500000  1.0
  Rh0+  Rh110  1  0.00000000  0.75000000  0.87500000  1.0
  Rh0+  Rh111  1  0.50000000  0.25000000  0.37500000  1.0
  Rh0+  Rh112  1  0.25000000  0.62500000  0.00000000  1.0
  Rh0+  Rh113  1  0.75000000  0.12500000  0.50000000  1.0
  Rh0+  Rh114  1  0.75000000  0.87500000  0.00000000  1.0
  Rh0+  Rh115  1  0.25000000  0.37500000  0.50000000  1.0
  Rh0+  Rh116  1  0.62500000  0.00000000  0.25000000  1.0
  Rh0+  Rh117  1  0.12500000  0.50000000  0.75000000  1.0
  Rh0+  Rh118  1  0.87500000  0.00000000  0.75000000  1.0
  Rh0+  Rh119  1  0.37500000  0.50000000  0.25000000  1.0
