# generated using pymatgen
data_HfPRu
_symmetry_space_group_name_H-M   'P 1'
_cell_length_a   6.41400000
_cell_length_b   6.41400000
_cell_length_c   3.75300000
_cell_angle_alpha   90.00000000
_cell_angle_beta   90.00000000
_cell_angle_gamma   120.00000000
_symmetry_Int_Tables_number   1
_chemical_formula_structural   HfPRu
_chemical_formula_sum   'Hf3 P3 Ru3'
_cell_volume   133.71099091
_cell_formula_units_Z   3
loop_
 _symmetry_equiv_pos_site_id
 _symmetry_equiv_pos_as_xyz
  1  'x, y, z'
loop_
 _atom_type_symbol
 _atom_type_oxidation_number
  Hf0+  0.0
  P0+  0.0
  Ru0+  0.0
loop_
 _atom_site_type_symbol
 _atom_site_label
 _atom_site_symmetry_multiplicity
 _atom_site_fract_x
 _atom_site_fract_y
 _atom_site_fract_z
 _atom_site_occupancy
  Hf0+  Hf0  1  0.41500000  0.41500000  0.50000000  1.0
  Hf0+  Hf1  1  0.58500000  0.00000000  0.50000000  1.0
  Hf0+  Hf2  1  0.00000000  0.58500000  0.50000000  1.0
  P0+  P3  1  0.00000000  0.00000000  0.50000000  1.0
  P0+  P4  1  0.66666667  0.33333333  0.00000000  1.0
  P0+  P5  1  0.33333333  0.66666667  0.00000000  1.0
  Ru0+  Ru6  1  0.75700000  0.75700000  0.00000000  1.0
  Ru0+  Ru7  1  0.24300000  0.00000000  0.00000000  1.0
  Ru0+  Ru8  1  0.00000000  0.24300000  0.00000000  1.0
