# generated using pymatgen
data_Sr2ScNiAsO3
_symmetry_space_group_name_H-M   'P 1'
_cell_length_a   4.10080000
_cell_length_b   4.10080000
_cell_length_c   15.46360000
_cell_angle_alpha   90.00000000
_cell_angle_beta   90.00000000
_cell_angle_gamma   90.00000000
_symmetry_Int_Tables_number   1
_chemical_formula_structural   Sr2ScNiAsO3
_chemical_formula_sum   'Sr4 Sc2 Ni2 As2 O6'
_cell_volume   260.04456711
_cell_formula_units_Z   2
loop_
 _symmetry_equiv_pos_site_id
 _symmetry_equiv_pos_as_xyz
  1  'x, y, z'
loop_
 _atom_type_symbol
 _atom_type_oxidation_number
  Sr2+  2.0
  Sc3+  3.0
  Ni2+  2.0
  As3-  -3.0
  O2-  -2.0
loop_
 _atom_site_type_symbol
 _atom_site_label
 _atom_site_symmetry_multiplicity
 _atom_site_fract_x
 _atom_site_fract_y
 _atom_site_fract_z
 _atom_site_occupancy
  Sr2+  Sr0  1  0.25000000  0.25000000  0.81890000  1.0
  Sr2+  Sr1  1  0.75000000  0.75000000  0.18110000  1.0
  Sr2+  Sr2  1  0.25000000  0.25000000  0.58800000  1.0
  Sr2+  Sr3  1  0.75000000  0.75000000  0.41200000  1.0
  Sc3+  Sc4  1  0.75000000  0.75000000  0.69610000  1.0
  Sc3+  Sc5  1  0.25000000  0.25000000  0.30390000  1.0
  Ni2+  Ni6  1  0.25000000  0.75000000  0.00000000  1.0
  Ni2+  Ni7  1  0.75000000  0.25000000  0.00000000  1.0
  As3-  As8  1  0.75000000  0.75000000  0.92300000  1.0
  As3-  As9  1  0.25000000  0.25000000  0.07700000  1.0
  O2-  O10  1  0.75000000  0.25000000  0.71760000  1.0
  O2-  O11  1  0.25000000  0.75000000  0.71760000  1.0
  O2-  O12  1  0.25000000  0.75000000  0.28240000  1.0
  O2-  O13  1  0.75000000  0.25000000  0.28240000  1.0
  O2-  O14  1  0.75000000  0.75000000  0.56760000  1.0
  O2-  O15  1  0.25000000  0.25000000  0.43240000  1.0
