# generated using pymatgen
data_NbSiRu
_symmetry_space_group_name_H-M   'P 1'
_cell_length_a   7.12300000
_cell_length_b   11.41300000
_cell_length_c   6.53500000
_cell_angle_alpha   90.00000000
_cell_angle_beta   90.00000000
_cell_angle_gamma   90.00000000
_symmetry_Int_Tables_number   1
_chemical_formula_structural   NbSiRu
_chemical_formula_sum   'Nb12 Si12 Ru12'
_cell_volume   531.26151147
_cell_formula_units_Z   12
loop_
 _symmetry_equiv_pos_site_id
 _symmetry_equiv_pos_as_xyz
  1  'x, y, z'
loop_
 _atom_type_symbol
 _atom_type_oxidation_number
  Nb0+  0.0
  Si0+  0.0
  Ru0+  0.0
loop_
 _atom_site_type_symbol
 _atom_site_label
 _atom_site_symmetry_multiplicity
 _atom_site_fract_x
 _atom_site_fract_y
 _atom_site_fract_z
 _atom_site_occupancy
  Nb0+  Nb0  1  0.75000000  0.79960000  0.29640000  1.0
  Nb0+  Nb1  1  0.25000000  0.20040000  0.29640000  1.0
  Nb0+  Nb2  1  0.25000000  0.29960000  0.79640000  1.0
  Nb0+  Nb3  1  0.75000000  0.70040000  0.79640000  1.0
  Nb0+  Nb4  1  0.75000000  0.22070000  0.27070000  1.0
  Nb0+  Nb5  1  0.25000000  0.77930000  0.27070000  1.0
  Nb0+  Nb6  1  0.25000000  0.72070000  0.77070000  1.0
  Nb0+  Nb7  1  0.75000000  0.27930000  0.77070000  1.0
  Nb0+  Nb8  1  0.75000000  0.00210000  0.91780000  1.0
  Nb0+  Nb9  1  0.25000000  0.99790000  0.91780000  1.0
  Nb0+  Nb10  1  0.25000000  0.50210000  0.41780000  1.0
  Nb0+  Nb11  1  0.75000000  0.49790000  0.41780000  1.0
  Si0+  Si12  1  0.75000000  0.02530000  0.50550000  1.0
  Si0+  Si13  1  0.25000000  0.97470000  0.50550000  1.0
  Si0+  Si14  1  0.25000000  0.52530000  0.00550000  1.0
  Si0+  Si15  1  0.75000000  0.47470000  0.00550000  1.0
  Si0+  Si16  1  0.50600000  0.83250000  0.99530000  1.0
  Si0+  Si17  1  0.49400000  0.16750000  0.99530000  1.0
  Si0+  Si18  1  0.99400000  0.83250000  0.99530000  1.0
  Si0+  Si19  1  0.00600000  0.16750000  0.99530000  1.0
  Si0+  Si20  1  0.00600000  0.33250000  0.49530000  1.0
  Si0+  Si21  1  0.99400000  0.66750000  0.49530000  1.0
  Si0+  Si22  1  0.49400000  0.33250000  0.49530000  1.0
  Si0+  Si23  1  0.50600000  0.66750000  0.49530000  1.0
  Ru0+  Ru24  1  0.50000000  0.00000000  0.25010000  1.0
  Ru0+  Ru25  1  0.00000000  0.00000000  0.25010000  1.0
  Ru0+  Ru26  1  0.00000000  0.50000000  0.75010000  1.0
  Ru0+  Ru27  1  0.50000000  0.50000000  0.75010000  1.0
  Ru0+  Ru28  1  0.52950000  0.62360000  0.12000000  1.0
  Ru0+  Ru29  1  0.47050000  0.37640000  0.12000000  1.0
  Ru0+  Ru30  1  0.97050000  0.62360000  0.12000000  1.0
  Ru0+  Ru31  1  0.02950000  0.37640000  0.12000000  1.0
  Ru0+  Ru32  1  0.02950000  0.12360000  0.62000000  1.0
  Ru0+  Ru33  1  0.97050000  0.87640000  0.62000000  1.0
  Ru0+  Ru34  1  0.47050000  0.12360000  0.62000000  1.0
  Ru0+  Ru35  1  0.52950000  0.87640000  0.62000000  1.0
