# generated using pymatgen
data_TaReSi
_symmetry_space_group_name_H-M   'P 1'
_cell_length_a   7.00200000
_cell_length_b   11.61400000
_cell_length_c   6.60500000
_cell_angle_alpha   90.00000000
_cell_angle_beta   90.00000000
_cell_angle_gamma   90.00000000
_symmetry_Int_Tables_number   1
_chemical_formula_structural   TaReSi
_chemical_formula_sum   'Ta12 Re12 Si12'
_cell_volume   537.12671094
_cell_formula_units_Z   12
loop_
 _symmetry_equiv_pos_site_id
 _symmetry_equiv_pos_as_xyz
  1  'x, y, z'
loop_
 _atom_type_symbol
 _atom_type_oxidation_number
  Ta0+  0.0
  Re0+  0.0
  Si0+  0.0
loop_
 _atom_site_type_symbol
 _atom_site_label
 _atom_site_symmetry_multiplicity
 _atom_site_fract_x
 _atom_site_fract_y
 _atom_site_fract_z
 _atom_site_occupancy
  Ta0+  Ta0  1  0.75000000  0.79960000  0.29640000  1.0
  Ta0+  Ta1  1  0.25000000  0.20040000  0.29640000  1.0
  Ta0+  Ta2  1  0.25000000  0.29960000  0.79640000  1.0
  Ta0+  Ta3  1  0.75000000  0.70040000  0.79640000  1.0
  Ta0+  Ta4  1  0.75000000  0.22070000  0.27070000  1.0
  Ta0+  Ta5  1  0.25000000  0.77930000  0.27070000  1.0
  Ta0+  Ta6  1  0.25000000  0.72070000  0.77070000  1.0
  Ta0+  Ta7  1  0.75000000  0.27930000  0.77070000  1.0
  Ta0+  Ta8  1  0.75000000  0.00210000  0.91780000  1.0
  Ta0+  Ta9  1  0.25000000  0.99790000  0.91780000  1.0
  Ta0+  Ta10  1  0.25000000  0.50210000  0.41780000  1.0
  Ta0+  Ta11  1  0.75000000  0.49790000  0.41780000  1.0
  Re0+  Re12  1  0.50000000  0.00000000  0.25010000  1.0
  Re0+  Re13  1  0.00000000  0.00000000  0.25010000  1.0
  Re0+  Re14  1  0.00000000  0.50000000  0.75010000  1.0
  Re0+  Re15  1  0.50000000  0.50000000  0.75010000  1.0
  Re0+  Re16  1  0.52950000  0.62360000  0.12000000  1.0
  Re0+  Re17  1  0.47050000  0.37640000  0.12000000  1.0
  Re0+  Re18  1  0.97050000  0.62360000  0.12000000  1.0
  Re0+  Re19  1  0.02950000  0.37640000  0.12000000  1.0
  Re0+  Re20  1  0.02950000  0.12360000  0.62000000  1.0
  Re0+  Re21  1  0.97050000  0.87640000  0.62000000  1.0
  Re0+  Re22  1  0.47050000  0.12360000  0.62000000  1.0
  Re0+  Re23  1  0.52950000  0.87640000  0.62000000  1.0
  Si0+  Si24  1  0.75000000  0.02530000  0.50550000  1.0
  Si0+  Si25  1  0.25000000  0.97470000  0.50550000  1.0
  Si0+  Si26  1  0.25000000  0.52530000  0.00550000  1.0
  Si0+  Si27  1  0.75000000  0.47470000  0.00550000  1.0
  Si0+  Si28  1  0.50600000  0.83250000  0.99530000  1.0
  Si0+  Si29  1  0.49400000  0.16750000  0.99530000  1.0
  Si0+  Si30  1  0.99400000  0.83250000  0.99530000  1.0
  Si0+  Si31  1  0.00600000  0.16750000  0.99530000  1.0
  Si0+  Si32  1  0.00600000  0.33250000  0.49530000  1.0
  Si0+  Si33  1  0.99400000  0.66750000  0.49530000  1.0
  Si0+  Si34  1  0.49400000  0.33250000  0.49530000  1.0
  Si0+  Si35  1  0.50600000  0.66750000  0.49530000  1.0
