# generated using pymatgen
data_Nb5Ge3
_symmetry_space_group_name_H-M   'P 1'
_cell_length_a   6.67800000
_cell_length_b   6.67800000
_cell_length_c   12.05000000
_cell_angle_alpha   90.00000000
_cell_angle_beta   90.00000000
_cell_angle_gamma   90.00000000
_symmetry_Int_Tables_number   1
_chemical_formula_structural   Nb5Ge3
_chemical_formula_sum   'Nb20 Ge12'
_cell_volume   537.37799220
_cell_formula_units_Z   4
loop_
 _symmetry_equiv_pos_site_id
 _symmetry_equiv_pos_as_xyz
  1  'x, y, z'
loop_
 _atom_type_symbol
 _atom_type_oxidation_number
  Nb0+  0.0
  Ge0+  0.0
loop_
 _atom_site_type_symbol
 _atom_site_label
 _atom_site_symmetry_multiplicity
 _atom_site_fract_x
 _atom_site_fract_y
 _atom_site_fract_z
 _atom_site_occupancy
  Nb0+  Nb0  1  0.00000000  0.00000000  0.50000000  1.0
  Nb0+  Nb1  1  0.00000000  0.00000000  0.00000000  1.0
  Nb0+  Nb2  1  0.50000000  0.50000000  0.00000000  1.0
  Nb0+  Nb3  1  0.50000000  0.50000000  0.50000000  1.0
  Nb0+  Nb4  1  0.66000000  0.16000000  0.35000000  1.0
  Nb0+  Nb5  1  0.34000000  0.84000000  0.35000000  1.0
  Nb0+  Nb6  1  0.34000000  0.16000000  0.85000000  1.0
  Nb0+  Nb7  1  0.66000000  0.84000000  0.85000000  1.0
  Nb0+  Nb8  1  0.16000000  0.34000000  0.35000000  1.0
  Nb0+  Nb9  1  0.84000000  0.66000000  0.35000000  1.0
  Nb0+  Nb10  1  0.16000000  0.66000000  0.85000000  1.0
  Nb0+  Nb11  1  0.84000000  0.34000000  0.85000000  1.0
  Nb0+  Nb12  1  0.34000000  0.84000000  0.65000000  1.0
  Nb0+  Nb13  1  0.66000000  0.16000000  0.65000000  1.0
  Nb0+  Nb14  1  0.66000000  0.84000000  0.15000000  1.0
  Nb0+  Nb15  1  0.34000000  0.16000000  0.15000000  1.0
  Nb0+  Nb16  1  0.84000000  0.66000000  0.65000000  1.0
  Nb0+  Nb17  1  0.16000000  0.34000000  0.65000000  1.0
  Nb0+  Nb18  1  0.84000000  0.34000000  0.15000000  1.0
  Nb0+  Nb19  1  0.16000000  0.66000000  0.15000000  1.0
  Ge0+  Ge20  1  0.00000000  0.00000000  0.25000000  1.0
  Ge0+  Ge21  1  0.00000000  0.00000000  0.75000000  1.0
  Ge0+  Ge22  1  0.50000000  0.50000000  0.75000000  1.0
  Ge0+  Ge23  1  0.50000000  0.50000000  0.25000000  1.0
  Ge0+  Ge24  1  0.87500000  0.37500000  0.50000000  1.0
  Ge0+  Ge25  1  0.12500000  0.62500000  0.50000000  1.0
  Ge0+  Ge26  1  0.12500000  0.37500000  0.00000000  1.0
  Ge0+  Ge27  1  0.87500000  0.62500000  0.00000000  1.0
  Ge0+  Ge28  1  0.37500000  0.12500000  0.50000000  1.0
  Ge0+  Ge29  1  0.62500000  0.87500000  0.50000000  1.0
  Ge0+  Ge30  1  0.37500000  0.87500000  0.00000000  1.0
  Ge0+  Ge31  1  0.62500000  0.12500000  0.00000000  1.0
