# generated using pymatgen
data_Ag(Mo3S4)2
_symmetry_space_group_name_H-M   'P 1'
_cell_length_a   9.31000000
_cell_length_b   9.31000000
_cell_length_c   10.82000000
_cell_angle_alpha   90.00000000
_cell_angle_beta   90.00000000
_cell_angle_gamma   120.00000000
_symmetry_Int_Tables_number   1
_chemical_formula_structural   Ag(Mo3S4)2
_chemical_formula_sum   'Ag3 Mo18 S24'
_cell_volume   812.18928270
_cell_formula_units_Z   3
loop_
 _symmetry_equiv_pos_site_id
 _symmetry_equiv_pos_as_xyz
  1  'x, y, z'
loop_
 _atom_type_symbol
 _atom_type_oxidation_number
  Ag+  1.0
  Mo2.5+  2.5
  S2-  -2.0
loop_
 _atom_site_type_symbol
 _atom_site_label
 _atom_site_symmetry_multiplicity
 _atom_site_fract_x
 _atom_site_fract_y
 _atom_site_fract_z
 _atom_site_occupancy
  Ag+  Ag0  1  0.00000000  0.00000000  0.00000000  1.0
  Ag+  Ag1  1  0.66666667  0.33333333  0.33333333  1.0
  Ag+  Ag2  1  0.33333333  0.66666667  0.66666667  1.0
  Mo2.5+  Mo3  1  0.98400000  0.15900000  0.60700000  1.0
  Mo2.5+  Mo4  1  0.17500000  0.01600000  0.60700000  1.0
  Mo2.5+  Mo5  1  0.84100000  0.82500000  0.60700000  1.0
  Mo2.5+  Mo6  1  0.01600000  0.84100000  0.39300000  1.0
  Mo2.5+  Mo7  1  0.82500000  0.98400000  0.39300000  1.0
  Mo2.5+  Mo8  1  0.15900000  0.17500000  0.39300000  1.0
  Mo2.5+  Mo9  1  0.65066667  0.49233333  0.94033333  1.0
  Mo2.5+  Mo10  1  0.84166667  0.34933333  0.94033333  1.0
  Mo2.5+  Mo11  1  0.50766667  0.15833333  0.94033333  1.0
  Mo2.5+  Mo12  1  0.68266667  0.17433333  0.72633333  1.0
  Mo2.5+  Mo13  1  0.49166667  0.31733333  0.72633333  1.0
  Mo2.5+  Mo14  1  0.82566667  0.50833333  0.72633333  1.0
  Mo2.5+  Mo15  1  0.31733333  0.82566667  0.27366667  1.0
  Mo2.5+  Mo16  1  0.50833333  0.68266667  0.27366667  1.0
  Mo2.5+  Mo17  1  0.17433333  0.49166667  0.27366667  1.0
  Mo2.5+  Mo18  1  0.34933333  0.50766667  0.05966667  1.0
  Mo2.5+  Mo19  1  0.15833333  0.65066667  0.05966667  1.0
  Mo2.5+  Mo20  1  0.49233333  0.84166667  0.05966667  1.0
  S2-  S21  1  0.00000000  0.00000000  0.77600000  1.0
  S2-  S22  1  0.00000000  0.00000000  0.22400000  1.0
  S2-  S23  1  0.66666667  0.33333333  0.10933333  1.0
  S2-  S24  1  0.66666667  0.33333333  0.55733333  1.0
  S2-  S25  1  0.33333333  0.66666667  0.44266667  1.0
  S2-  S26  1  0.33333333  0.66666667  0.89066667  1.0
  S2-  S27  1  0.69900000  0.04800000  0.91800000  1.0
  S2-  S28  1  0.34900000  0.30100000  0.91800000  1.0
  S2-  S29  1  0.95200000  0.65100000  0.91800000  1.0
  S2-  S30  1  0.30100000  0.95200000  0.08200000  1.0
  S2-  S31  1  0.65100000  0.69900000  0.08200000  1.0
  S2-  S32  1  0.04800000  0.34900000  0.08200000  1.0
  S2-  S33  1  0.36566667  0.38133333  0.25133333  1.0
  S2-  S34  1  0.01566667  0.63433333  0.25133333  1.0
  S2-  S35  1  0.61866667  0.98433333  0.25133333  1.0
  S2-  S36  1  0.96766667  0.28533333  0.41533333  1.0
  S2-  S37  1  0.31766667  0.03233333  0.41533333  1.0
  S2-  S38  1  0.71466667  0.68233333  0.41533333  1.0
  S2-  S39  1  0.03233333  0.71466667  0.58466667  1.0
  S2-  S40  1  0.68233333  0.96766667  0.58466667  1.0
  S2-  S41  1  0.28533333  0.31766667  0.58466667  1.0
  S2-  S42  1  0.63433333  0.61866667  0.74866667  1.0
  S2-  S43  1  0.98433333  0.36566667  0.74866667  1.0
  S2-  S44  1  0.38133333  0.01566667  0.74866667  1.0
