# generated using pymatgen
data_Yb(Mo3Se4)2
_symmetry_space_group_name_H-M   'P 1'
_cell_length_a   9.48400000
_cell_length_b   9.48400000
_cell_length_c   11.89000000
_cell_angle_alpha   90.00000000
_cell_angle_beta   90.00000000
_cell_angle_gamma   120.00000000
_symmetry_Int_Tables_number   1
_chemical_formula_structural   Yb(Mo3Se4)2
_chemical_formula_sum   'Yb3 Mo18 Se24'
_cell_volume   926.18038036
_cell_formula_units_Z   3
loop_
 _symmetry_equiv_pos_site_id
 _symmetry_equiv_pos_as_xyz
  1  'x, y, z'
loop_
 _atom_type_symbol
 _atom_type_oxidation_number
  Yb3+  3.0
  Mo2.17+  2.17
  Se2-  -2.0
loop_
 _atom_site_type_symbol
 _atom_site_label
 _atom_site_symmetry_multiplicity
 _atom_site_fract_x
 _atom_site_fract_y
 _atom_site_fract_z
 _atom_site_occupancy
  Yb3+  Yb0  1  0.00000000  0.00000000  0.00000000  1.0
  Yb3+  Yb1  1  0.66666667  0.33333333  0.33333333  1.0
  Yb3+  Yb2  1  0.33333333  0.66666667  0.66666667  1.0
  Mo2.17+  Mo3  1  0.98400000  0.15600000  0.59600000  1.0
  Mo2.17+  Mo4  1  0.17200000  0.01600000  0.59600000  1.0
  Mo2.17+  Mo5  1  0.84400000  0.82800000  0.59600000  1.0
  Mo2.17+  Mo6  1  0.01600000  0.84400000  0.40400000  1.0
  Mo2.17+  Mo7  1  0.82800000  0.98400000  0.40400000  1.0
  Mo2.17+  Mo8  1  0.15600000  0.17200000  0.40400000  1.0
  Mo2.17+  Mo9  1  0.65066667  0.48933333  0.92933333  1.0
  Mo2.17+  Mo10  1  0.83866667  0.34933333  0.92933333  1.0
  Mo2.17+  Mo11  1  0.51066667  0.16133333  0.92933333  1.0
  Mo2.17+  Mo12  1  0.68266667  0.17733333  0.73733333  1.0
  Mo2.17+  Mo13  1  0.49466667  0.31733333  0.73733333  1.0
  Mo2.17+  Mo14  1  0.82266667  0.50533333  0.73733333  1.0
  Mo2.17+  Mo15  1  0.31733333  0.82266667  0.26266667  1.0
  Mo2.17+  Mo16  1  0.50533333  0.68266667  0.26266667  1.0
  Mo2.17+  Mo17  1  0.17733333  0.49466667  0.26266667  1.0
  Mo2.17+  Mo18  1  0.34933333  0.51066667  0.07066667  1.0
  Mo2.17+  Mo19  1  0.16133333  0.65066667  0.07066667  1.0
  Mo2.17+  Mo20  1  0.48933333  0.83866667  0.07066667  1.0
  Se2-  Se21  1  0.00000000  0.00000000  0.75900000  1.0
  Se2-  Se22  1  0.00000000  0.00000000  0.24100000  1.0
  Se2-  Se23  1  0.66666667  0.33333333  0.09233333  1.0
  Se2-  Se24  1  0.66666667  0.33333333  0.57433333  1.0
  Se2-  Se25  1  0.33333333  0.66666667  0.42566667  1.0
  Se2-  Se26  1  0.33333333  0.66666667  0.90766667  1.0
  Se2-  Se27  1  0.70800000  0.04000000  0.91600000  1.0
  Se2-  Se28  1  0.33200000  0.29200000  0.91600000  1.0
  Se2-  Se29  1  0.96000000  0.66800000  0.91600000  1.0
  Se2-  Se30  1  0.29200000  0.96000000  0.08400000  1.0
  Se2-  Se31  1  0.66800000  0.70800000  0.08400000  1.0
  Se2-  Se32  1  0.04000000  0.33200000  0.08400000  1.0
  Se2-  Se33  1  0.37466667  0.37333333  0.24933333  1.0
  Se2-  Se34  1  0.99866667  0.62533333  0.24933333  1.0
  Se2-  Se35  1  0.62666667  0.00133333  0.24933333  1.0
  Se2-  Se36  1  0.95866667  0.29333333  0.41733333  1.0
  Se2-  Se37  1  0.33466667  0.04133333  0.41733333  1.0
  Se2-  Se38  1  0.70666667  0.66533333  0.41733333  1.0
  Se2-  Se39  1  0.04133333  0.70666667  0.58266667  1.0
  Se2-  Se40  1  0.66533333  0.95866667  0.58266667  1.0
  Se2-  Se41  1  0.29333333  0.33466667  0.58266667  1.0
  Se2-  Se42  1  0.62533333  0.62666667  0.75066667  1.0
  Se2-  Se43  1  0.00133333  0.37466667  0.75066667  1.0
  Se2-  Se44  1  0.37333333  0.99866667  0.75066667  1.0
