# generated using pymatgen
data_Zr2Si4Ru3
_symmetry_space_group_name_H-M   'P 1'
_cell_length_a   18.99200000
_cell_length_b   5.34760000
_cell_length_c   13.28900000
_cell_angle_alpha   90.00000000
_cell_angle_beta   127.73000000
_cell_angle_gamma   90.00000000
_symmetry_Int_Tables_number   1
_chemical_formula_structural   Zr2Si4Ru3
_chemical_formula_sum   'Zr16 Si32 Ru24'
_cell_volume   1067.44440858
_cell_formula_units_Z   8
loop_
 _symmetry_equiv_pos_site_id
 _symmetry_equiv_pos_as_xyz
  1  'x, y, z'
loop_
 _atom_type_symbol
 _atom_type_oxidation_number
  Zr0+  0.0
  Si0+  0.0
  Ru0+  0.0
loop_
 _atom_site_type_symbol
 _atom_site_label
 _atom_site_symmetry_multiplicity
 _atom_site_fract_x
 _atom_site_fract_y
 _atom_site_fract_z
 _atom_site_occupancy
  Zr0+  Zr0  1  0.16601000  0.87230000  0.86180000  1.0
  Zr0+  Zr1  1  0.83399000  0.87230000  0.63820000  1.0
  Zr0+  Zr2  1  0.83399000  0.12770000  0.13820000  1.0
  Zr0+  Zr3  1  0.16601000  0.12770000  0.36180000  1.0
  Zr0+  Zr4  1  0.66601000  0.37230000  0.86180000  1.0
  Zr0+  Zr5  1  0.33399000  0.37230000  0.63820000  1.0
  Zr0+  Zr6  1  0.33399000  0.62770000  0.13820000  1.0
  Zr0+  Zr7  1  0.66601000  0.62770000  0.36180000  1.0
  Zr0+  Zr8  1  0.42666000  0.87100000  0.85220000  1.0
  Zr0+  Zr9  1  0.57334000  0.87100000  0.64780000  1.0
  Zr0+  Zr10  1  0.57334000  0.12900000  0.14780000  1.0
  Zr0+  Zr11  1  0.42666000  0.12900000  0.35220000  1.0
  Zr0+  Zr12  1  0.92666000  0.37100000  0.85220000  1.0
  Zr0+  Zr13  1  0.07334000  0.37100000  0.64780000  1.0
  Zr0+  Zr14  1  0.07334000  0.62900000  0.14780000  1.0
  Zr0+  Zr15  1  0.92666000  0.62900000  0.35220000  1.0
  Si0+  Si16  1  0.11280000  0.85740000  0.60580000  1.0
  Si0+  Si17  1  0.88720000  0.85740000  0.89420000  1.0
  Si0+  Si18  1  0.88720000  0.14260000  0.39420000  1.0
  Si0+  Si19  1  0.11280000  0.14260000  0.10580000  1.0
  Si0+  Si20  1  0.61280000  0.35740000  0.60580000  1.0
  Si0+  Si21  1  0.38720000  0.35740000  0.89420000  1.0
  Si0+  Si22  1  0.38720000  0.64260000  0.39420000  1.0
  Si0+  Si23  1  0.61280000  0.64260000  0.10580000  1.0
  Si0+  Si24  1  0.26570000  0.87730000  0.60470000  1.0
  Si0+  Si25  1  0.73430000  0.87730000  0.89530000  1.0
  Si0+  Si26  1  0.73430000  0.12270000  0.39530000  1.0
  Si0+  Si27  1  0.26570000  0.12270000  0.10470000  1.0
  Si0+  Si28  1  0.76570000  0.37730000  0.60470000  1.0
  Si0+  Si29  1  0.23430000  0.37730000  0.89530000  1.0
  Si0+  Si30  1  0.23430000  0.62270000  0.39530000  1.0
  Si0+  Si31  1  0.76570000  0.62270000  0.10470000  1.0
  Si0+  Si32  1  0.32980000  0.75680000  0.93530000  1.0
  Si0+  Si33  1  0.67020000  0.75680000  0.56470000  1.0
  Si0+  Si34  1  0.67020000  0.24320000  0.06470000  1.0
  Si0+  Si35  1  0.32980000  0.24320000  0.43530000  1.0
  Si0+  Si36  1  0.82980000  0.25680000  0.93530000  1.0
  Si0+  Si37  1  0.17020000  0.25680000  0.56470000  1.0
  Si0+  Si38  1  0.17020000  0.74320000  0.06470000  1.0
  Si0+  Si39  1  0.82980000  0.74320000  0.43530000  1.0
  Si0+  Si40  1  0.00000000  0.61770000  0.75000000  1.0
  Si0+  Si41  1  0.00000000  0.38230000  0.25000000  1.0
  Si0+  Si42  1  0.50000000  0.11770000  0.75000000  1.0
  Si0+  Si43  1  0.50000000  0.88230000  0.25000000  1.0
  Si0+  Si44  1  0.00000000  0.12830000  0.75000000  1.0
  Si0+  Si45  1  0.00000000  0.87170000  0.25000000  1.0
  Si0+  Si46  1  0.50000000  0.62830000  0.75000000  1.0
  Si0+  Si47  1  0.50000000  0.37170000  0.25000000  1.0
  Ru0+  Ru48  1  0.02120000  0.88840000  0.91563000  1.0
  Ru0+  Ru49  1  0.97880000  0.88840000  0.58437000  1.0
  Ru0+  Ru50  1  0.97880000  0.11160000  0.08437000  1.0
  Ru0+  Ru51  1  0.02120000  0.11160000  0.41563000  1.0
  Ru0+  Ru52  1  0.52120000  0.38840000  0.91563000  1.0
  Ru0+  Ru53  1  0.47880000  0.38840000  0.58437000  1.0
  Ru0+  Ru54  1  0.47880000  0.61160000  0.08437000  1.0
  Ru0+  Ru55  1  0.52120000  0.61160000  0.41563000  1.0
  Ru0+  Ru56  1  0.23791000  0.59130000  0.72000000  1.0
  Ru0+  Ru57  1  0.76209000  0.59130000  0.78000000  1.0
  Ru0+  Ru58  1  0.76209000  0.40870000  0.28000000  1.0
  Ru0+  Ru59  1  0.23791000  0.40870000  0.22000000  1.0
  Ru0+  Ru60  1  0.73791000  0.09130000  0.72000000  1.0
  Ru0+  Ru61  1  0.26209000  0.09130000  0.78000000  1.0
  Ru0+  Ru62  1  0.26209000  0.90870000  0.28000000  1.0
  Ru0+  Ru63  1  0.73791000  0.90870000  0.22000000  1.0
  Ru0+  Ru64  1  0.37707000  0.85890000  0.56640000  1.0
  Ru0+  Ru65  1  0.62293000  0.85890000  0.93360000  1.0
  Ru0+  Ru66  1  0.62293000  0.14110000  0.43360000  1.0
  Ru0+  Ru67  1  0.37707000  0.14110000  0.06640000  1.0
  Ru0+  Ru68  1  0.87707000  0.35890000  0.56640000  1.0
  Ru0+  Ru69  1  0.12293000  0.35890000  0.93360000  1.0
  Ru0+  Ru70  1  0.12293000  0.64110000  0.43360000  1.0
  Ru0+  Ru71  1  0.87707000  0.64110000  0.06640000  1.0
