# generated using pymatgen
data_V2B2Ir
_symmetry_space_group_name_H-M   'P 1'
_cell_length_a   9.22100000
_cell_length_b   7.14500000
_cell_length_c   3.12600000
_cell_angle_alpha   90.00000000
_cell_angle_beta   90.00000000
_cell_angle_gamma   90.00000000
_symmetry_Int_Tables_number   1
_chemical_formula_structural   V2B2Ir
_chemical_formula_sum   'V8 B8 Ir4'
_cell_volume   205.95352467
_cell_formula_units_Z   4
loop_
 _symmetry_equiv_pos_site_id
 _symmetry_equiv_pos_as_xyz
  1  'x, y, z'
loop_
 _atom_type_symbol
 _atom_type_oxidation_number
  V0+  0.0
  B0+  0.0
  Ir0+  0.0
loop_
 _atom_site_type_symbol
 _atom_site_label
 _atom_site_symmetry_multiplicity
 _atom_site_fract_x
 _atom_site_fract_y
 _atom_site_fract_z
 _atom_site_occupancy
  V0+  V0  1  0.86800000  0.18800000  0.50000000  1.0
  V0+  V1  1  0.13200000  0.81200000  0.50000000  1.0
  V0+  V2  1  0.36800000  0.31200000  0.00000000  1.0
  V0+  V3  1  0.63200000  0.68800000  0.00000000  1.0
  V0+  V4  1  0.14000000  0.43000000  0.50000000  1.0
  V0+  V5  1  0.86000000  0.57000000  0.50000000  1.0
  V0+  V6  1  0.64000000  0.07000000  0.00000000  1.0
  V0+  V7  1  0.36000000  0.93000000  0.00000000  1.0
  B0+  B8  1  0.53500000  0.88400000  0.50000000  1.0
  B0+  B9  1  0.46500000  0.11600000  0.50000000  1.0
  B0+  B10  1  0.03500000  0.61600000  0.00000000  1.0
  B0+  B11  1  0.96500000  0.38400000  0.00000000  1.0
  B0+  B12  1  0.72800000  0.84500000  0.50000000  1.0
  B0+  B13  1  0.27200000  0.15500000  0.50000000  1.0
  B0+  B14  1  0.22800000  0.65500000  0.00000000  1.0
  B0+  B15  1  0.77200000  0.34500000  0.00000000  1.0
  Ir0+  Ir16  1  0.60900000  0.37800000  0.50000000  1.0
  Ir0+  Ir17  1  0.39100000  0.62200000  0.50000000  1.0
  Ir0+  Ir18  1  0.10900000  0.12200000  0.00000000  1.0
  Ir0+  Ir19  1  0.89100000  0.87800000  0.00000000  1.0
