# generated using pymatgen
data_YbC6
_symmetry_space_group_name_H-M   'P 1'
_cell_length_a   4.32000000
_cell_length_b   4.32000000
_cell_length_c   9.14700000
_cell_angle_alpha   90.00000000
_cell_angle_beta   90.00000000
_cell_angle_gamma   120.00000000
_symmetry_Int_Tables_number   1
_chemical_formula_structural   YbC6
_chemical_formula_sum   'Yb2 C12'
_cell_volume   147.83484300
_cell_formula_units_Z   2
loop_
 _symmetry_equiv_pos_site_id
 _symmetry_equiv_pos_as_xyz
  1  'x, y, z'
loop_
 _atom_type_symbol
 _atom_type_oxidation_number
  Yb0+  0.0
  C0+  0.0
loop_
 _atom_site_type_symbol
 _atom_site_label
 _atom_site_symmetry_multiplicity
 _atom_site_fract_x
 _atom_site_fract_y
 _atom_site_fract_z
 _atom_site_occupancy
  Yb0+  Yb0  1  0.33333333  0.66666667  0.25000000  1.0
  Yb0+  Yb1  1  0.66666667  0.33333333  0.75000000  1.0
  C0+  C2  1  0.33333333  0.33333333  0.50000000  1.0
  C0+  C3  1  0.66666667  0.00000000  0.50000000  1.0
  C0+  C4  1  0.00000000  0.66666667  0.50000000  1.0
  C0+  C5  1  0.66666667  0.66666667  0.50000000  1.0
  C0+  C6  1  0.00000000  0.33333333  0.50000000  1.0
  C0+  C7  1  0.33333333  0.00000000  0.50000000  1.0
  C0+  C8  1  0.66666667  0.66666667  0.00000000  1.0
  C0+  C9  1  0.33333333  0.00000000  0.00000000  1.0
  C0+  C10  1  0.00000000  0.33333333  0.00000000  1.0
  C0+  C11  1  0.33333333  0.33333333  0.00000000  1.0
  C0+  C12  1  0.00000000  0.66666667  0.00000000  1.0
  C0+  C13  1  0.66666667  0.00000000  0.00000000  1.0
