# generated using pymatgen
data_KCu4S3
_symmetry_space_group_name_H-M   'P 1'
_cell_length_a   3.89100000
_cell_length_b   3.89100000
_cell_length_c   9.27300000
_cell_angle_alpha   90.00000000
_cell_angle_beta   90.00000000
_cell_angle_gamma   90.00000000
_symmetry_Int_Tables_number   1
_chemical_formula_structural   KCu4S3
_chemical_formula_sum   'K1 Cu4 S3'
_cell_volume   140.39211651
_cell_formula_units_Z   1
loop_
 _symmetry_equiv_pos_site_id
 _symmetry_equiv_pos_as_xyz
  1  'x, y, z'
loop_
 _atom_type_symbol
 _atom_type_oxidation_number
  K+  1.0
  Cu1.25+  1.25
  S2-  -2.0
loop_
 _atom_site_type_symbol
 _atom_site_label
 _atom_site_symmetry_multiplicity
 _atom_site_fract_x
 _atom_site_fract_y
 _atom_site_fract_z
 _atom_site_occupancy
  K+  K0  1  0.00000000  0.00000000  0.50000000  1.0
  Cu1.25+  Cu1  1  0.00000000  0.50000000  0.75000000  1.0
  Cu1.25+  Cu2  1  0.50000000  0.00000000  0.75000000  1.0
  Cu1.25+  Cu3  1  0.00000000  0.50000000  0.25000000  1.0
  Cu1.25+  Cu4  1  0.50000000  0.00000000  0.25000000  1.0
  S2-  S5  1  0.00000000  0.00000000  0.00000000  1.0
  S2-  S6  1  0.50000000  0.50000000  0.70600000  1.0
  S2-  S7  1  0.50000000  0.50000000  0.29400000  1.0
