# generated using pymatgen
data_YSiIr
_symmetry_space_group_name_H-M   'P 1'
_cell_length_a   6.78900000
_cell_length_b   4.18800000
_cell_length_c   7.46200000
_cell_angle_alpha   90.00000000
_cell_angle_beta   90.00000000
_cell_angle_gamma   90.00000000
_symmetry_Int_Tables_number   1
_chemical_formula_structural   YSiIr
_chemical_formula_sum   'Y4 Si4 Ir4'
_cell_volume   212.16206138
_cell_formula_units_Z   4
loop_
 _symmetry_equiv_pos_site_id
 _symmetry_equiv_pos_as_xyz
  1  'x, y, z'
loop_
 _atom_type_symbol
 _atom_type_oxidation_number
  Y0+  0.0
  Si0+  0.0
  Ir0+  0.0
loop_
 _atom_site_type_symbol
 _atom_site_label
 _atom_site_symmetry_multiplicity
 _atom_site_fract_x
 _atom_site_fract_y
 _atom_site_fract_z
 _atom_site_occupancy
  Y0+  Y0  1  0.50500000  0.25000000  0.81500000  1.0
  Y0+  Y1  1  0.00500000  0.25000000  0.68500000  1.0
  Y0+  Y2  1  0.49500000  0.75000000  0.18500000  1.0
  Y0+  Y3  1  0.99500000  0.75000000  0.31500000  1.0
  Si0+  Si4  1  0.78000000  0.25000000  0.10200000  1.0
  Si0+  Si5  1  0.28000000  0.25000000  0.39800000  1.0
  Si0+  Si6  1  0.22000000  0.75000000  0.89800000  1.0
  Si0+  Si7  1  0.72000000  0.75000000  0.60200000  1.0
  Ir0+  Ir8  1  0.65700000  0.25000000  0.43400000  1.0
  Ir0+  Ir9  1  0.15700000  0.25000000  0.06600000  1.0
  Ir0+  Ir10  1  0.34300000  0.75000000  0.56600000  1.0
  Ir0+  Ir11  1  0.84300000  0.75000000  0.93400000  1.0
