# generated using pymatgen
data_LaC2
_symmetry_space_group_name_H-M   'P 1'
_cell_length_a   3.62650000
_cell_length_b   3.62650000
_cell_length_c   6.09830000
_cell_angle_alpha   90.00000000
_cell_angle_beta   90.00000000
_cell_angle_gamma   90.00000000
_symmetry_Int_Tables_number   1
_chemical_formula_structural   LaC2
_chemical_formula_sum   'La2 C4'
_cell_volume   80.20180617
_cell_formula_units_Z   2
loop_
 _symmetry_equiv_pos_site_id
 _symmetry_equiv_pos_as_xyz
  1  'x, y, z'
loop_
 _atom_type_symbol
 _atom_type_oxidation_number
  La3+  3.0
  C1.5-  -1.5
loop_
 _atom_site_type_symbol
 _atom_site_label
 _atom_site_symmetry_multiplicity
 _atom_site_fract_x
 _atom_site_fract_y
 _atom_site_fract_z
 _atom_site_occupancy
  La3+  La0  1  0.00000000  0.00000000  0.00000000  1.0
  La3+  La1  1  0.50000000  0.50000000  0.50000000  1.0
  C1.5-  C2  1  0.00000000  0.00000000  0.59800000  1.0
  C1.5-  C3  1  0.00000000  0.00000000  0.40200000  1.0
  C1.5-  C4  1  0.50000000  0.50000000  0.09800000  1.0
  C1.5-  C5  1  0.50000000  0.50000000  0.90200000  1.0
