# generated using pymatgen
data_TaB
_symmetry_space_group_name_H-M   'P 1'
_cell_length_a   3.28000000
_cell_length_b   8.67000000
_cell_length_c   3.15500000
_cell_angle_alpha   90.00000000
_cell_angle_beta   90.00000000
_cell_angle_gamma   90.00000000
_symmetry_Int_Tables_number   1
_chemical_formula_structural   TaB
_chemical_formula_sum   'Ta4 B4'
_cell_volume   89.72062800
_cell_formula_units_Z   4
loop_
 _symmetry_equiv_pos_site_id
 _symmetry_equiv_pos_as_xyz
  1  'x, y, z'
loop_
 _atom_type_symbol
 _atom_type_oxidation_number
  Ta0+  0.0
  B0+  0.0
loop_
 _atom_site_type_symbol
 _atom_site_label
 _atom_site_symmetry_multiplicity
 _atom_site_fract_x
 _atom_site_fract_y
 _atom_site_fract_z
 _atom_site_occupancy
  Ta0+  Ta0  1  0.00000000  0.14600000  0.25000000  1.0
  Ta0+  Ta1  1  0.00000000  0.85400000  0.75000000  1.0
  Ta0+  Ta2  1  0.50000000  0.64600000  0.25000000  1.0
  Ta0+  Ta3  1  0.50000000  0.35400000  0.75000000  1.0
  B0+  B4  1  0.00000000  0.44000000  0.25000000  1.0
  B0+  B5  1  0.00000000  0.56000000  0.75000000  1.0
  B0+  B6  1  0.50000000  0.94000000  0.25000000  1.0
  B0+  B7  1  0.50000000  0.06000000  0.75000000  1.0
