# generated using pymatgen
data_Cu(RhSe2)2
_symmetry_space_group_name_H-M   'P 1'
_cell_length_a   10.26900000
_cell_length_b   10.26900000
_cell_length_c   10.26900000
_cell_angle_alpha   90.00000000
_cell_angle_beta   90.00000000
_cell_angle_gamma   90.00000000
_symmetry_Int_Tables_number   1
_chemical_formula_structural   Cu(RhSe2)2
_chemical_formula_sum   'Cu8 Rh16 Se32'
_cell_volume   1082.89029511
_cell_formula_units_Z   8
loop_
 _symmetry_equiv_pos_site_id
 _symmetry_equiv_pos_as_xyz
  1  'x, y, z'
loop_
 _atom_type_symbol
 _atom_type_oxidation_number
  Cu2+  2.0
  Rh3+  3.0
  Se2-  -2.0
loop_
 _atom_site_type_symbol
 _atom_site_label
 _atom_site_symmetry_multiplicity
 _atom_site_fract_x
 _atom_site_fract_y
 _atom_site_fract_z
 _atom_site_occupancy
  Cu2+  Cu0  1  0.62500000  0.12500000  0.12500000  1.0
  Cu2+  Cu1  1  0.12500000  0.62500000  0.12500000  1.0
  Cu2+  Cu2  1  0.12500000  0.12500000  0.62500000  1.0
  Cu2+  Cu3  1  0.62500000  0.62500000  0.62500000  1.0
  Cu2+  Cu4  1  0.37500000  0.87500000  0.87500000  1.0
  Cu2+  Cu5  1  0.87500000  0.37500000  0.87500000  1.0
  Cu2+  Cu6  1  0.87500000  0.87500000  0.37500000  1.0
  Cu2+  Cu7  1  0.37500000  0.37500000  0.37500000  1.0
  Rh3+  Rh8  1  0.00000000  0.75000000  0.75000000  1.0
  Rh3+  Rh9  1  0.75000000  0.00000000  0.75000000  1.0
  Rh3+  Rh10  1  0.75000000  0.75000000  0.00000000  1.0
  Rh3+  Rh11  1  0.00000000  0.00000000  0.00000000  1.0
  Rh3+  Rh12  1  0.00000000  0.25000000  0.25000000  1.0
  Rh3+  Rh13  1  0.25000000  0.00000000  0.25000000  1.0
  Rh3+  Rh14  1  0.25000000  0.25000000  0.00000000  1.0
  Rh3+  Rh15  1  0.75000000  0.50000000  0.25000000  1.0
  Rh3+  Rh16  1  0.75000000  0.25000000  0.50000000  1.0
  Rh3+  Rh17  1  0.00000000  0.50000000  0.50000000  1.0
  Rh3+  Rh18  1  0.25000000  0.50000000  0.75000000  1.0
  Rh3+  Rh19  1  0.25000000  0.75000000  0.50000000  1.0
  Rh3+  Rh20  1  0.50000000  0.75000000  0.25000000  1.0
  Rh3+  Rh21  1  0.50000000  0.00000000  0.50000000  1.0
  Rh3+  Rh22  1  0.50000000  0.25000000  0.75000000  1.0
  Rh3+  Rh23  1  0.50000000  0.50000000  0.00000000  1.0
  Se2-  Se24  1  0.75400000  0.99600000  0.99600000  1.0
  Se2-  Se25  1  0.99600000  0.75400000  0.99600000  1.0
  Se2-  Se26  1  0.99600000  0.99600000  0.75400000  1.0
  Se2-  Se27  1  0.75400000  0.75400000  0.75400000  1.0
  Se2-  Se28  1  0.24600000  0.00400000  0.00400000  1.0
  Se2-  Se29  1  0.00400000  0.24600000  0.00400000  1.0
  Se2-  Se30  1  0.00400000  0.00400000  0.24600000  1.0
  Se2-  Se31  1  0.24600000  0.24600000  0.24600000  1.0
  Se2-  Se32  1  0.75400000  0.49600000  0.49600000  1.0
  Se2-  Se33  1  0.99600000  0.25400000  0.49600000  1.0
  Se2-  Se34  1  0.99600000  0.49600000  0.25400000  1.0
  Se2-  Se35  1  0.75400000  0.25400000  0.25400000  1.0
  Se2-  Se36  1  0.24600000  0.50400000  0.50400000  1.0
  Se2-  Se37  1  0.00400000  0.74600000  0.50400000  1.0
  Se2-  Se38  1  0.00400000  0.50400000  0.74600000  1.0
  Se2-  Se39  1  0.24600000  0.74600000  0.74600000  1.0
  Se2-  Se40  1  0.25400000  0.99600000  0.49600000  1.0
  Se2-  Se41  1  0.49600000  0.75400000  0.49600000  1.0
  Se2-  Se42  1  0.49600000  0.99600000  0.25400000  1.0
  Se2-  Se43  1  0.25400000  0.75400000  0.25400000  1.0
  Se2-  Se44  1  0.74600000  0.00400000  0.50400000  1.0
  Se2-  Se45  1  0.50400000  0.24600000  0.50400000  1.0
  Se2-  Se46  1  0.50400000  0.00400000  0.74600000  1.0
  Se2-  Se47  1  0.74600000  0.24600000  0.74600000  1.0
  Se2-  Se48  1  0.25400000  0.49600000  0.99600000  1.0
  Se2-  Se49  1  0.49600000  0.25400000  0.99600000  1.0
  Se2-  Se50  1  0.49600000  0.49600000  0.75400000  1.0
  Se2-  Se51  1  0.25400000  0.25400000  0.75400000  1.0
  Se2-  Se52  1  0.74600000  0.50400000  0.00400000  1.0
  Se2-  Se53  1  0.50400000  0.74600000  0.00400000  1.0
  Se2-  Se54  1  0.50400000  0.50400000  0.24600000  1.0
  Se2-  Se55  1  0.74600000  0.74600000  0.24600000  1.0
