# generated using pymatgen
data_Pr(Mo3S4)2
_symmetry_space_group_name_H-M   'P 1'
_cell_length_a   9.10000000
_cell_length_b   9.10000000
_cell_length_c   11.44000000
_cell_angle_alpha   90.00000000
_cell_angle_beta   90.00000000
_cell_angle_gamma   120.00000000
_symmetry_Int_Tables_number   1
_chemical_formula_structural   Pr(Mo3S4)2
_chemical_formula_sum   'Pr3 Mo18 S24'
_cell_volume   820.42604858
_cell_formula_units_Z   3
loop_
 _symmetry_equiv_pos_site_id
 _symmetry_equiv_pos_as_xyz
  1  'x, y, z'
loop_
 _atom_type_symbol
 _atom_type_oxidation_number
  Pr3+  3.0
  Mo2.17+  2.17
  S2-  -2.0
loop_
 _atom_site_type_symbol
 _atom_site_label
 _atom_site_symmetry_multiplicity
 _atom_site_fract_x
 _atom_site_fract_y
 _atom_site_fract_z
 _atom_site_occupancy
  Pr3+  Pr0  1  0.00000000  0.00000000  0.00000000  1.0
  Pr3+  Pr1  1  0.66666667  0.33333333  0.33333333  1.0
  Pr3+  Pr2  1  0.33333333  0.66666667  0.66666667  1.0
  Mo2.17+  Mo3  1  0.98300000  0.15500000  0.59400000  1.0
  Mo2.17+  Mo4  1  0.17200000  0.01700000  0.59400000  1.0
  Mo2.17+  Mo5  1  0.84500000  0.82800000  0.59400000  1.0
  Mo2.17+  Mo6  1  0.01700000  0.84500000  0.40600000  1.0
  Mo2.17+  Mo7  1  0.82800000  0.98300000  0.40600000  1.0
  Mo2.17+  Mo8  1  0.15500000  0.17200000  0.40600000  1.0
  Mo2.17+  Mo9  1  0.64966667  0.48833333  0.92733333  1.0
  Mo2.17+  Mo10  1  0.83866667  0.35033333  0.92733333  1.0
  Mo2.17+  Mo11  1  0.51166667  0.16133333  0.92733333  1.0
  Mo2.17+  Mo12  1  0.68366667  0.17833333  0.73933333  1.0
  Mo2.17+  Mo13  1  0.49466667  0.31633333  0.73933333  1.0
  Mo2.17+  Mo14  1  0.82166667  0.50533333  0.73933333  1.0
  Mo2.17+  Mo15  1  0.31633333  0.82166667  0.26066667  1.0
  Mo2.17+  Mo16  1  0.50533333  0.68366667  0.26066667  1.0
  Mo2.17+  Mo17  1  0.17833333  0.49466667  0.26066667  1.0
  Mo2.17+  Mo18  1  0.35033333  0.51166667  0.07266667  1.0
  Mo2.17+  Mo19  1  0.16133333  0.64966667  0.07266667  1.0
  Mo2.17+  Mo20  1  0.48833333  0.83866667  0.07266667  1.0
  S2-  S21  1  0.00000000  0.00000000  0.76000000  1.0
  S2-  S22  1  0.00000000  0.00000000  0.24000000  1.0
  S2-  S23  1  0.66666667  0.33333333  0.09333333  1.0
  S2-  S24  1  0.66666667  0.33333333  0.57333333  1.0
  S2-  S25  1  0.33333333  0.66666667  0.42666667  1.0
  S2-  S26  1  0.33333333  0.66666667  0.90666667  1.0
  S2-  S27  1  0.70800000  0.03700000  0.91600000  1.0
  S2-  S28  1  0.32900000  0.29200000  0.91600000  1.0
  S2-  S29  1  0.96300000  0.67100000  0.91600000  1.0
  S2-  S30  1  0.29200000  0.96300000  0.08400000  1.0
  S2-  S31  1  0.67100000  0.70800000  0.08400000  1.0
  S2-  S32  1  0.03700000  0.32900000  0.08400000  1.0
  S2-  S33  1  0.37466667  0.37033333  0.24933333  1.0
  S2-  S34  1  0.99566667  0.62533333  0.24933333  1.0
  S2-  S35  1  0.62966667  0.00433333  0.24933333  1.0
  S2-  S36  1  0.95866667  0.29633333  0.41733333  1.0
  S2-  S37  1  0.33766667  0.04133333  0.41733333  1.0
  S2-  S38  1  0.70366667  0.66233333  0.41733333  1.0
  S2-  S39  1  0.04133333  0.70366667  0.58266667  1.0
  S2-  S40  1  0.66233333  0.95866667  0.58266667  1.0
  S2-  S41  1  0.29633333  0.33766667  0.58266667  1.0
  S2-  S42  1  0.62533333  0.62966667  0.75066667  1.0
  S2-  S43  1  0.00433333  0.37466667  0.75066667  1.0
  S2-  S44  1  0.37033333  0.99566667  0.75066667  1.0
