# generated using pymatgen
data_Nd(Mo3S4)2
_symmetry_space_group_name_H-M   'P 1'
_cell_length_a   9.10000000
_cell_length_b   9.10000000
_cell_length_c   11.42000000
_cell_angle_alpha   90.00000000
_cell_angle_beta   90.00000000
_cell_angle_gamma   120.00000000
_symmetry_Int_Tables_number   1
_chemical_formula_structural   Nd(Mo3S4)2
_chemical_formula_sum   'Nd3 Mo18 S24'
_cell_volume   818.99173731
_cell_formula_units_Z   3
loop_
 _symmetry_equiv_pos_site_id
 _symmetry_equiv_pos_as_xyz
  1  'x, y, z'
loop_
 _atom_type_symbol
 _atom_type_oxidation_number
  Nd3+  3.0
  Mo2.17+  2.17
  S2-  -2.0
loop_
 _atom_site_type_symbol
 _atom_site_label
 _atom_site_symmetry_multiplicity
 _atom_site_fract_x
 _atom_site_fract_y
 _atom_site_fract_z
 _atom_site_occupancy
  Nd3+  Nd0  1  0.00000000  0.00000000  0.00000000  1.0
  Nd3+  Nd1  1  0.66666667  0.33333333  0.33333333  1.0
  Nd3+  Nd2  1  0.33333333  0.66666667  0.66666667  1.0
  Mo2.17+  Mo3  1  0.98300000  0.15500000  0.59500000  1.0
  Mo2.17+  Mo4  1  0.17200000  0.01700000  0.59500000  1.0
  Mo2.17+  Mo5  1  0.84500000  0.82800000  0.59500000  1.0
  Mo2.17+  Mo6  1  0.01700000  0.84500000  0.40500000  1.0
  Mo2.17+  Mo7  1  0.82800000  0.98300000  0.40500000  1.0
  Mo2.17+  Mo8  1  0.15500000  0.17200000  0.40500000  1.0
  Mo2.17+  Mo9  1  0.64966667  0.48833333  0.92833333  1.0
  Mo2.17+  Mo10  1  0.83866667  0.35033333  0.92833333  1.0
  Mo2.17+  Mo11  1  0.51166667  0.16133333  0.92833333  1.0
  Mo2.17+  Mo12  1  0.68366667  0.17833333  0.73833333  1.0
  Mo2.17+  Mo13  1  0.49466667  0.31633333  0.73833333  1.0
  Mo2.17+  Mo14  1  0.82166667  0.50533333  0.73833333  1.0
  Mo2.17+  Mo15  1  0.31633333  0.82166667  0.26166667  1.0
  Mo2.17+  Mo16  1  0.50533333  0.68366667  0.26166667  1.0
  Mo2.17+  Mo17  1  0.17833333  0.49466667  0.26166667  1.0
  Mo2.17+  Mo18  1  0.35033333  0.51166667  0.07166667  1.0
  Mo2.17+  Mo19  1  0.16133333  0.64966667  0.07166667  1.0
  Mo2.17+  Mo20  1  0.48833333  0.83866667  0.07166667  1.0
  S2-  S21  1  0.00000000  0.00000000  0.76100000  1.0
  S2-  S22  1  0.00000000  0.00000000  0.23900000  1.0
  S2-  S23  1  0.66666667  0.33333333  0.09433333  1.0
  S2-  S24  1  0.66666667  0.33333333  0.57233333  1.0
  S2-  S25  1  0.33333333  0.66666667  0.42766667  1.0
  S2-  S26  1  0.33333333  0.66666667  0.90566667  1.0
  S2-  S27  1  0.70800000  0.03800000  0.91700000  1.0
  S2-  S28  1  0.33000000  0.29200000  0.91700000  1.0
  S2-  S29  1  0.96200000  0.67000000  0.91700000  1.0
  S2-  S30  1  0.29200000  0.96200000  0.08300000  1.0
  S2-  S31  1  0.67000000  0.70800000  0.08300000  1.0
  S2-  S32  1  0.03800000  0.33000000  0.08300000  1.0
  S2-  S33  1  0.37466667  0.37133333  0.25033333  1.0
  S2-  S34  1  0.99666667  0.62533333  0.25033333  1.0
  S2-  S35  1  0.62866667  0.00333333  0.25033333  1.0
  S2-  S36  1  0.95866667  0.29533333  0.41633333  1.0
  S2-  S37  1  0.33666667  0.04133333  0.41633333  1.0
  S2-  S38  1  0.70466667  0.66333333  0.41633333  1.0
  S2-  S39  1  0.04133333  0.70466667  0.58366667  1.0
  S2-  S40  1  0.66333333  0.95866667  0.58366667  1.0
  S2-  S41  1  0.29533333  0.33666667  0.58366667  1.0
  S2-  S42  1  0.62533333  0.62866667  0.74966667  1.0
  S2-  S43  1  0.00333333  0.37466667  0.74966667  1.0
  S2-  S44  1  0.37133333  0.99666667  0.74966667  1.0
