# generated using pymatgen
data_Sn(Mo3Se4)2
_symmetry_space_group_name_H-M   'P 1'
_cell_length_a   9.49400000
_cell_length_b   9.49400000
_cell_length_c   11.89200000
_cell_angle_alpha   90.00000000
_cell_angle_beta   90.00000000
_cell_angle_gamma   120.00000000
_symmetry_Int_Tables_number   1
_chemical_formula_structural   Sn(Mo3Se4)2
_chemical_formula_sum   'Sn3 Mo18 Se24'
_cell_volume   928.29067320
_cell_formula_units_Z   3
loop_
 _symmetry_equiv_pos_site_id
 _symmetry_equiv_pos_as_xyz
  1  'x, y, z'
loop_
 _atom_type_symbol
 _atom_type_oxidation_number
  Sn4+  4.0
  Mo2+  2.0
  Se2-  -2.0
loop_
 _atom_site_type_symbol
 _atom_site_label
 _atom_site_symmetry_multiplicity
 _atom_site_fract_x
 _atom_site_fract_y
 _atom_site_fract_z
 _atom_site_occupancy
  Sn4+  Sn0  1  0.00000000  0.00000000  0.00000000  1.0
  Sn4+  Sn1  1  0.66666667  0.33333333  0.33333333  1.0
  Sn4+  Sn2  1  0.33333333  0.66666667  0.66666667  1.0
  Mo2+  Mo3  1  0.98400000  0.16000000  0.59800000  1.0
  Mo2+  Mo4  1  0.17600000  0.01600000  0.59800000  1.0
  Mo2+  Mo5  1  0.84000000  0.82400000  0.59800000  1.0
  Mo2+  Mo6  1  0.01600000  0.84000000  0.40200000  1.0
  Mo2+  Mo7  1  0.82400000  0.98400000  0.40200000  1.0
  Mo2+  Mo8  1  0.16000000  0.17600000  0.40200000  1.0
  Mo2+  Mo9  1  0.65066667  0.49333333  0.93133333  1.0
  Mo2+  Mo10  1  0.84266667  0.34933333  0.93133333  1.0
  Mo2+  Mo11  1  0.50666667  0.15733333  0.93133333  1.0
  Mo2+  Mo12  1  0.68266667  0.17333333  0.73533333  1.0
  Mo2+  Mo13  1  0.49066667  0.31733333  0.73533333  1.0
  Mo2+  Mo14  1  0.82666667  0.50933333  0.73533333  1.0
  Mo2+  Mo15  1  0.31733333  0.82666667  0.26466667  1.0
  Mo2+  Mo16  1  0.50933333  0.68266667  0.26466667  1.0
  Mo2+  Mo17  1  0.17333333  0.49066667  0.26466667  1.0
  Mo2+  Mo18  1  0.34933333  0.50666667  0.06866667  1.0
  Mo2+  Mo19  1  0.15733333  0.65066667  0.06866667  1.0
  Mo2+  Mo20  1  0.49333333  0.84266667  0.06866667  1.0
  Se2-  Se21  1  0.00000000  0.00000000  0.75900000  1.0
  Se2-  Se22  1  0.00000000  0.00000000  0.24100000  1.0
  Se2-  Se23  1  0.66666667  0.33333333  0.09233333  1.0
  Se2-  Se24  1  0.66666667  0.33333333  0.57433333  1.0
  Se2-  Se25  1  0.33333333  0.66666667  0.42566667  1.0
  Se2-  Se26  1  0.33333333  0.66666667  0.90766667  1.0
  Se2-  Se27  1  0.70400000  0.04300000  0.91700000  1.0
  Se2-  Se28  1  0.33900000  0.29600000  0.91700000  1.0
  Se2-  Se29  1  0.95700000  0.66100000  0.91700000  1.0
  Se2-  Se30  1  0.29600000  0.95700000  0.08300000  1.0
  Se2-  Se31  1  0.66100000  0.70400000  0.08300000  1.0
  Se2-  Se32  1  0.04300000  0.33900000  0.08300000  1.0
  Se2-  Se33  1  0.37066667  0.37633333  0.25033333  1.0
  Se2-  Se34  1  0.00566667  0.62933333  0.25033333  1.0
  Se2-  Se35  1  0.62366667  0.99433333  0.25033333  1.0
  Se2-  Se36  1  0.96266667  0.29033333  0.41633333  1.0
  Se2-  Se37  1  0.32766667  0.03733333  0.41633333  1.0
  Se2-  Se38  1  0.70966667  0.67233333  0.41633333  1.0
  Se2-  Se39  1  0.03733333  0.70966667  0.58366667  1.0
  Se2-  Se40  1  0.67233333  0.96266667  0.58366667  1.0
  Se2-  Se41  1  0.29033333  0.32766667  0.58366667  1.0
  Se2-  Se42  1  0.62933333  0.62366667  0.74966667  1.0
  Se2-  Se43  1  0.99433333  0.37066667  0.74966667  1.0
  Se2-  Se44  1  0.37633333  0.00566667  0.74966667  1.0
