# generated using pymatgen
data_PRh2
_symmetry_space_group_name_H-M   'P 1'
_cell_length_a   5.50210000
_cell_length_b   5.50210000
_cell_length_c   5.50210000
_cell_angle_alpha   90.00000000
_cell_angle_beta   90.00000000
_cell_angle_gamma   90.00000000
_symmetry_Int_Tables_number   1
_chemical_formula_structural   PRh2
_chemical_formula_sum   'P4 Rh8'
_cell_volume   166.56564777
_cell_formula_units_Z   4
loop_
 _symmetry_equiv_pos_site_id
 _symmetry_equiv_pos_as_xyz
  1  'x, y, z'
loop_
 _atom_type_symbol
 _atom_type_oxidation_number
  P0+  0.0
  Rh0+  0.0
loop_
 _atom_site_type_symbol
 _atom_site_label
 _atom_site_symmetry_multiplicity
 _atom_site_fract_x
 _atom_site_fract_y
 _atom_site_fract_z
 _atom_site_occupancy
  P0+  P0  1  0.00000000  0.00000000  0.00000000  1.0
  P0+  P1  1  0.00000000  0.50000000  0.50000000  1.0
  P0+  P2  1  0.50000000  0.00000000  0.50000000  1.0
  P0+  P3  1  0.50000000  0.50000000  0.00000000  1.0
  Rh0+  Rh4  1  0.25000000  0.25000000  0.75000000  1.0
  Rh0+  Rh5  1  0.25000000  0.75000000  0.25000000  1.0
  Rh0+  Rh6  1  0.75000000  0.25000000  0.25000000  1.0
  Rh0+  Rh7  1  0.75000000  0.75000000  0.75000000  1.0
  Rh0+  Rh8  1  0.75000000  0.75000000  0.25000000  1.0
  Rh0+  Rh9  1  0.75000000  0.25000000  0.75000000  1.0
  Rh0+  Rh10  1  0.25000000  0.75000000  0.75000000  1.0
  Rh0+  Rh11  1  0.25000000  0.25000000  0.25000000  1.0
