# generated using pymatgen
data_Co2CuS4
_symmetry_space_group_name_H-M   'P 1'
_cell_length_a   9.47800000
_cell_length_b   9.47800000
_cell_length_c   9.47800000
_cell_angle_alpha   90.00000000
_cell_angle_beta   90.00000000
_cell_angle_gamma   90.00000000
_symmetry_Int_Tables_number   1
_chemical_formula_structural   Co2CuS4
_chemical_formula_sum   'Co16 Cu8 S32'
_cell_volume   851.43228335
_cell_formula_units_Z   8
loop_
 _symmetry_equiv_pos_site_id
 _symmetry_equiv_pos_as_xyz
  1  'x, y, z'
loop_
 _atom_type_symbol
 _atom_type_oxidation_number
  Co3+  3.0
  Cu2+  2.0
  S2-  -2.0
loop_
 _atom_site_type_symbol
 _atom_site_label
 _atom_site_symmetry_multiplicity
 _atom_site_fract_x
 _atom_site_fract_y
 _atom_site_fract_z
 _atom_site_occupancy
  Co3+  Co0  1  0.50000000  0.25000000  0.25000000  1.0
  Co3+  Co1  1  0.25000000  0.50000000  0.25000000  1.0
  Co3+  Co2  1  0.25000000  0.25000000  0.50000000  1.0
  Co3+  Co3  1  0.50000000  0.50000000  0.50000000  1.0
  Co3+  Co4  1  0.50000000  0.75000000  0.75000000  1.0
  Co3+  Co5  1  0.75000000  0.50000000  0.75000000  1.0
  Co3+  Co6  1  0.75000000  0.75000000  0.50000000  1.0
  Co3+  Co7  1  0.25000000  0.00000000  0.75000000  1.0
  Co3+  Co8  1  0.25000000  0.75000000  0.00000000  1.0
  Co3+  Co9  1  0.50000000  0.00000000  0.00000000  1.0
  Co3+  Co10  1  0.75000000  0.00000000  0.25000000  1.0
  Co3+  Co11  1  0.75000000  0.25000000  0.00000000  1.0
  Co3+  Co12  1  0.00000000  0.25000000  0.75000000  1.0
  Co3+  Co13  1  0.00000000  0.50000000  0.00000000  1.0
  Co3+  Co14  1  0.00000000  0.75000000  0.25000000  1.0
  Co3+  Co15  1  0.00000000  0.00000000  0.50000000  1.0
  Cu2+  Cu16  1  0.87500000  0.87500000  0.87500000  1.0
  Cu2+  Cu17  1  0.12500000  0.12500000  0.12500000  1.0
  Cu2+  Cu18  1  0.87500000  0.37500000  0.37500000  1.0
  Cu2+  Cu19  1  0.12500000  0.62500000  0.62500000  1.0
  Cu2+  Cu20  1  0.37500000  0.87500000  0.37500000  1.0
  Cu2+  Cu21  1  0.62500000  0.12500000  0.62500000  1.0
  Cu2+  Cu22  1  0.37500000  0.37500000  0.87500000  1.0
  Cu2+  Cu23  1  0.62500000  0.62500000  0.12500000  1.0
  S2-  S24  1  0.73800000  0.01200000  0.01200000  1.0
  S2-  S25  1  0.01200000  0.73800000  0.01200000  1.0
  S2-  S26  1  0.01200000  0.01200000  0.73800000  1.0
  S2-  S27  1  0.73800000  0.73800000  0.73800000  1.0
  S2-  S28  1  0.26200000  0.98800000  0.98800000  1.0
  S2-  S29  1  0.98800000  0.26200000  0.98800000  1.0
  S2-  S30  1  0.98800000  0.98800000  0.26200000  1.0
  S2-  S31  1  0.26200000  0.26200000  0.26200000  1.0
  S2-  S32  1  0.73800000  0.51200000  0.51200000  1.0
  S2-  S33  1  0.01200000  0.23800000  0.51200000  1.0
  S2-  S34  1  0.01200000  0.51200000  0.23800000  1.0
  S2-  S35  1  0.73800000  0.23800000  0.23800000  1.0
  S2-  S36  1  0.26200000  0.48800000  0.48800000  1.0
  S2-  S37  1  0.98800000  0.76200000  0.48800000  1.0
  S2-  S38  1  0.98800000  0.48800000  0.76200000  1.0
  S2-  S39  1  0.26200000  0.76200000  0.76200000  1.0
  S2-  S40  1  0.23800000  0.01200000  0.51200000  1.0
  S2-  S41  1  0.51200000  0.73800000  0.51200000  1.0
  S2-  S42  1  0.51200000  0.01200000  0.23800000  1.0
  S2-  S43  1  0.23800000  0.73800000  0.23800000  1.0
  S2-  S44  1  0.76200000  0.98800000  0.48800000  1.0
  S2-  S45  1  0.48800000  0.26200000  0.48800000  1.0
  S2-  S46  1  0.48800000  0.98800000  0.76200000  1.0
  S2-  S47  1  0.76200000  0.26200000  0.76200000  1.0
  S2-  S48  1  0.23800000  0.51200000  0.01200000  1.0
  S2-  S49  1  0.51200000  0.23800000  0.01200000  1.0
  S2-  S50  1  0.51200000  0.51200000  0.73800000  1.0
  S2-  S51  1  0.23800000  0.23800000  0.73800000  1.0
  S2-  S52  1  0.76200000  0.48800000  0.98800000  1.0
  S2-  S53  1  0.48800000  0.76200000  0.98800000  1.0
  S2-  S54  1  0.48800000  0.48800000  0.26200000  1.0
  S2-  S55  1  0.76200000  0.76200000  0.26200000  1.0
