# generated using pymatgen
data_AlAu4
_symmetry_space_group_name_H-M   'P 1'
_cell_length_a   6.92000000
_cell_length_b   6.92000000
_cell_length_c   6.92000000
_cell_angle_alpha   90.00000000
_cell_angle_beta   90.00000000
_cell_angle_gamma   90.00000000
_symmetry_Int_Tables_number   1
_chemical_formula_structural   AlAu4
_chemical_formula_sum   'Al4 Au16'
_cell_volume   331.37388800
_cell_formula_units_Z   4
loop_
 _symmetry_equiv_pos_site_id
 _symmetry_equiv_pos_as_xyz
  1  'x, y, z'
loop_
 _atom_type_symbol
 _atom_type_oxidation_number
  Al0+  0.0
  Au0+  0.0
loop_
 _atom_site_type_symbol
 _atom_site_label
 _atom_site_symmetry_multiplicity
 _atom_site_fract_x
 _atom_site_fract_y
 _atom_site_fract_z
 _atom_site_occupancy
  Al0+  Al0  1  0.81000000  0.31000000  0.19000000  1.0
  Al0+  Al1  1  0.31000000  0.19000000  0.81000000  1.0
  Al0+  Al2  1  0.19000000  0.81000000  0.31000000  1.0
  Al0+  Al3  1  0.69000000  0.69000000  0.69000000  1.0
  Au0+  Au4  1  0.03800000  0.86700000  0.70100000  1.0
  Au0+  Au5  1  0.29900000  0.53800000  0.63300000  1.0
  Au0+  Au6  1  0.36700000  0.79900000  0.96200000  1.0
  Au0+  Au7  1  0.53800000  0.63300000  0.29900000  1.0
  Au0+  Au8  1  0.79900000  0.96200000  0.36700000  1.0
  Au0+  Au9  1  0.86700000  0.70100000  0.03800000  1.0
  Au0+  Au10  1  0.96200000  0.36700000  0.79900000  1.0
  Au0+  Au11  1  0.70100000  0.03800000  0.86700000  1.0
  Au0+  Au12  1  0.63300000  0.29900000  0.53800000  1.0
  Au0+  Au13  1  0.46200000  0.13300000  0.20100000  1.0
  Au0+  Au14  1  0.20100000  0.46200000  0.13300000  1.0
  Au0+  Au15  1  0.13300000  0.20100000  0.46200000  1.0
  Au0+  Au16  1  0.43300000  0.93300000  0.56700000  1.0
  Au0+  Au17  1  0.93300000  0.56700000  0.43300000  1.0
  Au0+  Au18  1  0.56700000  0.43300000  0.93300000  1.0
  Au0+  Au19  1  0.06700000  0.06700000  0.06700000  1.0
