# generated using pymatgen
data_YNiGe3
_symmetry_space_group_name_H-M   'P 1'
_cell_length_a   21.54800000
_cell_length_b   4.06700000
_cell_length_c   4.06700000
_cell_angle_alpha   90.00000000
_cell_angle_beta   90.00000000
_cell_angle_gamma   90.00000000
_symmetry_Int_Tables_number   1
_chemical_formula_structural   YNiGe3
_chemical_formula_sum   'Y4 Ni4 Ge12'
_cell_volume   356.41445697
_cell_formula_units_Z   4
loop_
 _symmetry_equiv_pos_site_id
 _symmetry_equiv_pos_as_xyz
  1  'x, y, z'
loop_
 _atom_type_symbol
 _atom_type_oxidation_number
  Y0+  0.0
  Ni0+  0.0
  Ge0+  0.0
loop_
 _atom_site_type_symbol
 _atom_site_label
 _atom_site_symmetry_multiplicity
 _atom_site_fract_x
 _atom_site_fract_y
 _atom_site_fract_z
 _atom_site_occupancy
  Y0+  Y0  1  0.16920000  0.00000000  0.50000000  1.0
  Y0+  Y1  1  0.83080000  0.00000000  0.50000000  1.0
  Y0+  Y2  1  0.66920000  0.50000000  0.50000000  1.0
  Y0+  Y3  1  0.33080000  0.50000000  0.50000000  1.0
  Ni0+  Ni4  1  0.38960000  0.00000000  0.00000000  1.0
  Ni0+  Ni5  1  0.61040000  0.00000000  0.00000000  1.0
  Ni0+  Ni6  1  0.88960000  0.50000000  0.00000000  1.0
  Ni0+  Ni7  1  0.11040000  0.50000000  0.00000000  1.0
  Ge0+  Ge8  1  0.28390000  0.00000000  0.00000000  1.0
  Ge0+  Ge9  1  0.71610000  0.00000000  0.00000000  1.0
  Ge0+  Ge10  1  0.78390000  0.50000000  0.00000000  1.0
  Ge0+  Ge11  1  0.21610000  0.50000000  0.00000000  1.0
  Ge0+  Ge12  1  0.44430000  0.00000000  0.50000000  1.0
  Ge0+  Ge13  1  0.55570000  0.00000000  0.50000000  1.0
  Ge0+  Ge14  1  0.94430000  0.50000000  0.50000000  1.0
  Ge0+  Ge15  1  0.05570000  0.50000000  0.50000000  1.0
  Ge0+  Ge16  1  0.05770000  0.00000000  0.00000000  1.0
  Ge0+  Ge17  1  0.94230000  0.00000000  0.00000000  1.0
  Ge0+  Ge18  1  0.55770000  0.50000000  0.00000000  1.0
  Ge0+  Ge19  1  0.44230000  0.50000000  0.00000000  1.0
