# generated using pymatgen
data_Nb3Al2N
_symmetry_space_group_name_H-M   'P 1'
_cell_length_a   7.03400000
_cell_length_b   7.03400000
_cell_length_c   7.03400000
_cell_angle_alpha   90.00000000
_cell_angle_beta   90.00000000
_cell_angle_gamma   90.00000000
_symmetry_Int_Tables_number   1
_chemical_formula_structural   Nb3Al2N
_chemical_formula_sum   'Nb12 Al8 N4'
_cell_volume   348.02231530
_cell_formula_units_Z   4
loop_
 _symmetry_equiv_pos_site_id
 _symmetry_equiv_pos_as_xyz
  1  'x, y, z'
loop_
 _atom_type_symbol
 _atom_type_oxidation_number
  Nb0+  0.0
  Al0+  0.0
  N0+  0.0
loop_
 _atom_site_type_symbol
 _atom_site_label
 _atom_site_symmetry_multiplicity
 _atom_site_fract_x
 _atom_site_fract_y
 _atom_site_fract_z
 _atom_site_occupancy
  Nb0+  Nb0  1  0.79400000  0.95600000  0.37500000  1.0
  Nb0+  Nb1  1  0.70600000  0.04400000  0.87500000  1.0
  Nb0+  Nb2  1  0.20600000  0.45600000  0.12500000  1.0
  Nb0+  Nb3  1  0.29400000  0.54400000  0.62500000  1.0
  Nb0+  Nb4  1  0.95600000  0.37500000  0.79400000  1.0
  Nb0+  Nb5  1  0.04400000  0.87500000  0.70600000  1.0
  Nb0+  Nb6  1  0.45600000  0.12500000  0.20600000  1.0
  Nb0+  Nb7  1  0.54400000  0.62500000  0.29400000  1.0
  Nb0+  Nb8  1  0.37500000  0.79400000  0.95600000  1.0
  Nb0+  Nb9  1  0.87500000  0.70600000  0.04400000  1.0
  Nb0+  Nb10  1  0.12500000  0.20600000  0.45600000  1.0
  Nb0+  Nb11  1  0.62500000  0.29400000  0.54400000  1.0
  Al0+  Al12  1  0.18900000  0.81100000  0.31100000  1.0
  Al0+  Al13  1  0.31100000  0.18900000  0.81100000  1.0
  Al0+  Al14  1  0.81100000  0.31100000  0.18900000  1.0
  Al0+  Al15  1  0.68900000  0.68900000  0.68900000  1.0
  Al0+  Al16  1  0.56100000  0.43900000  0.93900000  1.0
  Al0+  Al17  1  0.43900000  0.93900000  0.56100000  1.0
  Al0+  Al18  1  0.93900000  0.56100000  0.43900000  1.0
  Al0+  Al19  1  0.06100000  0.06100000  0.06100000  1.0
  N0+  N20  1  0.87500000  0.12500000  0.62500000  1.0
  N0+  N21  1  0.62500000  0.87500000  0.12500000  1.0
  N0+  N22  1  0.12500000  0.62500000  0.87500000  1.0
  N0+  N23  1  0.37500000  0.37500000  0.37500000  1.0
