# generated using pymatgen
data_Nb3As
_symmetry_space_group_name_H-M   'P 1'
_cell_length_a   10.29370000
_cell_length_b   10.29370000
_cell_length_c   5.19710000
_cell_angle_alpha   90.00000000
_cell_angle_beta   90.00000000
_cell_angle_gamma   90.00000000
_symmetry_Int_Tables_number   1
_chemical_formula_structural   Nb3As
_chemical_formula_sum   'Nb24 As8'
_cell_volume   550.68606563
_cell_formula_units_Z   8
loop_
 _symmetry_equiv_pos_site_id
 _symmetry_equiv_pos_as_xyz
  1  'x, y, z'
loop_
 _atom_type_symbol
 _atom_type_oxidation_number
  Nb0+  0.0
  As0+  0.0
loop_
 _atom_site_type_symbol
 _atom_site_label
 _atom_site_symmetry_multiplicity
 _atom_site_fract_x
 _atom_site_fract_y
 _atom_site_fract_z
 _atom_site_occupancy
  Nb0+  Nb0  1  0.84500000  0.16500000  0.77300000  1.0
  Nb0+  Nb1  1  0.65500000  0.33500000  0.77300000  1.0
  Nb0+  Nb2  1  0.66500000  0.15500000  0.27300000  1.0
  Nb0+  Nb3  1  0.83500000  0.34500000  0.27300000  1.0
  Nb0+  Nb4  1  0.15500000  0.83500000  0.22700000  1.0
  Nb0+  Nb5  1  0.34500000  0.66500000  0.22700000  1.0
  Nb0+  Nb6  1  0.33500000  0.84500000  0.72700000  1.0
  Nb0+  Nb7  1  0.16500000  0.65500000  0.72700000  1.0
  Nb0+  Nb8  1  0.23800000  0.10200000  0.98200000  1.0
  Nb0+  Nb9  1  0.26200000  0.39800000  0.98200000  1.0
  Nb0+  Nb10  1  0.60200000  0.76200000  0.48200000  1.0
  Nb0+  Nb11  1  0.89800000  0.73800000  0.48200000  1.0
  Nb0+  Nb12  1  0.76200000  0.89800000  0.01800000  1.0
  Nb0+  Nb13  1  0.73800000  0.60200000  0.01800000  1.0
  Nb0+  Nb14  1  0.39800000  0.23800000  0.51800000  1.0
  Nb0+  Nb15  1  0.10200000  0.26200000  0.51800000  1.0
  Nb0+  Nb16  1  0.96400000  0.05600000  0.25900000  1.0
  Nb0+  Nb17  1  0.53600000  0.44400000  0.25900000  1.0
  Nb0+  Nb18  1  0.55600000  0.03600000  0.75900000  1.0
  Nb0+  Nb19  1  0.94400000  0.46400000  0.75900000  1.0
  Nb0+  Nb20  1  0.03600000  0.94400000  0.74100000  1.0
  Nb0+  Nb21  1  0.46400000  0.55600000  0.74100000  1.0
  Nb0+  Nb22  1  0.44400000  0.96400000  0.24100000  1.0
  Nb0+  Nb23  1  0.05600000  0.53600000  0.24100000  1.0
  As0+  As24  1  0.22900000  0.04300000  0.48000000  1.0
  As0+  As25  1  0.27100000  0.45700000  0.48000000  1.0
  As0+  As26  1  0.54300000  0.77100000  0.98000000  1.0
  As0+  As27  1  0.95700000  0.72900000  0.98000000  1.0
  As0+  As28  1  0.77100000  0.95700000  0.52000000  1.0
  As0+  As29  1  0.72900000  0.54300000  0.52000000  1.0
  As0+  As30  1  0.45700000  0.22900000  0.02000000  1.0
  As0+  As31  1  0.04300000  0.27100000  0.02000000  1.0
