# generated using pymatgen
data_AsPd2
_symmetry_space_group_name_H-M   'P 1'
_cell_length_a   6.62000000
_cell_length_b   6.62000000
_cell_length_c   3.60000000
_cell_angle_alpha   90.00000000
_cell_angle_beta   90.00000000
_cell_angle_gamma   120.00000000
_symmetry_Int_Tables_number   1
_chemical_formula_structural   AsPd2
_chemical_formula_sum   'As3 Pd6'
_cell_volume   136.63095734
_cell_formula_units_Z   3
loop_
 _symmetry_equiv_pos_site_id
 _symmetry_equiv_pos_as_xyz
  1  'x, y, z'
loop_
 _atom_type_symbol
 _atom_type_oxidation_number
  As0+  0.0
  Pd0+  0.0
loop_
 _atom_site_type_symbol
 _atom_site_label
 _atom_site_symmetry_multiplicity
 _atom_site_fract_x
 _atom_site_fract_y
 _atom_site_fract_z
 _atom_site_occupancy
  As0+  As0  1  0.66666667  0.33333333  0.00000000  1.0
  As0+  As1  1  0.33333333  0.66666667  0.00000000  1.0
  As0+  As2  1  0.00000000  0.00000000  0.50000000  1.0
  Pd0+  Pd3  1  0.74500000  0.74500000  0.00000000  1.0
  Pd0+  Pd4  1  0.25500000  0.00000000  0.00000000  1.0
  Pd0+  Pd5  1  0.00000000  0.25500000  0.00000000  1.0
  Pd0+  Pd6  1  0.40500000  0.40500000  0.50000000  1.0
  Pd0+  Pd7  1  0.59500000  0.00000000  0.50000000  1.0
  Pd0+  Pd8  1  0.00000000  0.59500000  0.50000000  1.0
