# generated using pymatgen
data_Y(BC)2
_symmetry_space_group_name_H-M   'P 1'
_cell_length_a   3.78000000
_cell_length_b   3.78000000
_cell_length_c   7.11100000
_cell_angle_alpha   90.00000000
_cell_angle_beta   90.00000000
_cell_angle_gamma   90.00000000
_symmetry_Int_Tables_number   1
_chemical_formula_structural   Y(BC)2
_chemical_formula_sum   'Y2 B4 C4'
_cell_volume   101.60481240
_cell_formula_units_Z   2
loop_
 _symmetry_equiv_pos_site_id
 _symmetry_equiv_pos_as_xyz
  1  'x, y, z'
loop_
 _atom_type_symbol
 _atom_type_oxidation_number
  Y0+  0.0
  B0+  0.0
  C0+  0.0
loop_
 _atom_site_type_symbol
 _atom_site_label
 _atom_site_symmetry_multiplicity
 _atom_site_fract_x
 _atom_site_fract_y
 _atom_site_fract_z
 _atom_site_occupancy
  Y0+  Y0  1  0.00000000  0.00000000  0.75000000  1.0
  Y0+  Y1  1  0.00000000  0.00000000  0.25000000  1.0
  B0+  B2  1  0.22600000  0.50000000  0.00000000  1.0
  B0+  B3  1  0.77400000  0.50000000  0.00000000  1.0
  B0+  B4  1  0.50000000  0.22600000  0.50000000  1.0
  B0+  B5  1  0.50000000  0.77400000  0.50000000  1.0
  C0+  C6  1  0.50000000  0.17300000  0.00000000  1.0
  C0+  C7  1  0.50000000  0.82700000  0.00000000  1.0
  C0+  C8  1  0.82700000  0.50000000  0.50000000  1.0
  C0+  C9  1  0.17300000  0.50000000  0.50000000  1.0
