# generated using pymatgen
data_YB4Os
_symmetry_space_group_name_H-M   'P 1'
_cell_length_a   5.95500000
_cell_length_b   11.52700000
_cell_length_c   3.55600000
_cell_angle_alpha   90.00000000
_cell_angle_beta   90.00000000
_cell_angle_gamma   90.00000000
_symmetry_Int_Tables_number   1
_chemical_formula_structural   YB4Os
_chemical_formula_sum   'Y4 B16 Os4'
_cell_volume   244.09552146
_cell_formula_units_Z   4
loop_
 _symmetry_equiv_pos_site_id
 _symmetry_equiv_pos_as_xyz
  1  'x, y, z'
loop_
 _atom_type_symbol
 _atom_type_oxidation_number
  Y0+  0.0
  B0+  0.0
  Os0+  0.0
loop_
 _atom_site_type_symbol
 _atom_site_label
 _atom_site_symmetry_multiplicity
 _atom_site_fract_x
 _atom_site_fract_y
 _atom_site_fract_z
 _atom_site_occupancy
  Y0+  Y0  1  0.62500000  0.34900000  0.00000000  1.0
  Y0+  Y1  1  0.37500000  0.65100000  0.00000000  1.0
  Y0+  Y2  1  0.12500000  0.15100000  0.00000000  1.0
  Y0+  Y3  1  0.87500000  0.84900000  0.00000000  1.0
  B0+  B4  1  0.78100000  0.18400000  0.50000000  1.0
  B0+  B5  1  0.21900000  0.81600000  0.50000000  1.0
  B0+  B6  1  0.28100000  0.31600000  0.50000000  1.0
  B0+  B7  1  0.71900000  0.68400000  0.50000000  1.0
  B0+  B8  1  0.86800000  0.03100000  0.50000000  1.0
  B0+  B9  1  0.13200000  0.96900000  0.50000000  1.0
  B0+  B10  1  0.36800000  0.46900000  0.50000000  1.0
  B0+  B11  1  0.63200000  0.53100000  0.50000000  1.0
  B0+  B12  1  0.88900000  0.45400000  0.50000000  1.0
  B0+  B13  1  0.11100000  0.54600000  0.50000000  1.0
  B0+  B14  1  0.38900000  0.04600000  0.50000000  1.0
  B0+  B15  1  0.61100000  0.95400000  0.50000000  1.0
  B0+  B16  1  0.98400000  0.31100000  0.50000000  1.0
  B0+  B17  1  0.01600000  0.68900000  0.50000000  1.0
  B0+  B18  1  0.48400000  0.18900000  0.50000000  1.0
  B0+  B19  1  0.51600000  0.81100000  0.50000000  1.0
  Os0+  Os20  1  0.63100000  0.08600000  0.00000000  1.0
  Os0+  Os21  1  0.36900000  0.91400000  0.00000000  1.0
  Os0+  Os22  1  0.13100000  0.41400000  0.00000000  1.0
  Os0+  Os23  1  0.86900000  0.58600000  0.00000000  1.0
