# generated using pymatgen
data_Y(BRh)4
_symmetry_space_group_name_H-M   'P 1'
_cell_length_a   5.31100000
_cell_length_b   5.31100000
_cell_length_c   7.40900000
_cell_angle_alpha   90.00000000
_cell_angle_beta   90.00000000
_cell_angle_gamma   90.00000000
_symmetry_Int_Tables_number   1
_chemical_formula_structural   Y(BRh)4
_chemical_formula_sum   'Y2 B8 Rh8'
_cell_volume   208.98359589
_cell_formula_units_Z   2
loop_
 _symmetry_equiv_pos_site_id
 _symmetry_equiv_pos_as_xyz
  1  'x, y, z'
loop_
 _atom_type_symbol
 _atom_type_oxidation_number
  Y0+  0.0
  B0+  0.0
  Rh0+  0.0
loop_
 _atom_site_type_symbol
 _atom_site_label
 _atom_site_symmetry_multiplicity
 _atom_site_fract_x
 _atom_site_fract_y
 _atom_site_fract_z
 _atom_site_occupancy
  Y0+  Y0  1  0.75000000  0.25000000  0.25000000  1.0
  Y0+  Y1  1  0.25000000  0.75000000  0.75000000  1.0
  B0+  B2  1  0.57500000  0.75000000  0.40300000  1.0
  B0+  B3  1  0.92500000  0.75000000  0.40300000  1.0
  B0+  B4  1  0.75000000  0.57500000  0.90300000  1.0
  B0+  B5  1  0.75000000  0.92500000  0.90300000  1.0
  B0+  B6  1  0.42500000  0.25000000  0.59700000  1.0
  B0+  B7  1  0.07500000  0.25000000  0.59700000  1.0
  B0+  B8  1  0.25000000  0.42500000  0.09700000  1.0
  B0+  B9  1  0.25000000  0.07500000  0.09700000  1.0
  Rh0+  Rh10  1  0.50000000  0.75000000  0.12500000  1.0
  Rh0+  Rh11  1  0.00000000  0.75000000  0.12500000  1.0
  Rh0+  Rh12  1  0.75000000  0.50000000  0.62500000  1.0
  Rh0+  Rh13  1  0.75000000  0.00000000  0.62500000  1.0
  Rh0+  Rh14  1  0.50000000  0.25000000  0.87500000  1.0
  Rh0+  Rh15  1  0.00000000  0.25000000  0.87500000  1.0
  Rh0+  Rh16  1  0.25000000  0.50000000  0.37500000  1.0
  Rh0+  Rh17  1  0.25000000  0.00000000  0.37500000  1.0
