# generated using pymatgen
data_Cd(Mo3Se4)2
_symmetry_space_group_name_H-M   'P 1'
_cell_length_a   9.76500000
_cell_length_b   9.76500000
_cell_length_c   11.17800000
_cell_angle_alpha   90.00000000
_cell_angle_beta   90.00000000
_cell_angle_gamma   120.00000000
_symmetry_Int_Tables_number   1
_chemical_formula_structural   Cd(Mo3Se4)2
_chemical_formula_sum   'Cd3 Mo18 Se24'
_cell_volume   923.07976798
_cell_formula_units_Z   3
loop_
 _symmetry_equiv_pos_site_id
 _symmetry_equiv_pos_as_xyz
  1  'x, y, z'
loop_
 _atom_type_symbol
 _atom_type_oxidation_number
  Cd2+  2.0
  Mo2.33+  2.33
  Se2-  -2.0
loop_
 _atom_site_type_symbol
 _atom_site_label
 _atom_site_symmetry_multiplicity
 _atom_site_fract_x
 _atom_site_fract_y
 _atom_site_fract_z
 _atom_site_occupancy
  Cd2+  Cd0  1  0.00000000  0.00000000  0.00000000  1.0
  Cd2+  Cd1  1  0.66666667  0.33333333  0.33333333  1.0
  Cd2+  Cd2  1  0.33333333  0.66666667  0.66666667  1.0
  Mo2.33+  Mo3  1  0.98600000  0.15800000  0.59600000  1.0
  Mo2.33+  Mo4  1  0.17200000  0.01400000  0.59600000  1.0
  Mo2.33+  Mo5  1  0.84200000  0.82800000  0.59600000  1.0
  Mo2.33+  Mo6  1  0.01400000  0.84200000  0.40400000  1.0
  Mo2.33+  Mo7  1  0.82800000  0.98600000  0.40400000  1.0
  Mo2.33+  Mo8  1  0.15800000  0.17200000  0.40400000  1.0
  Mo2.33+  Mo9  1  0.65266667  0.49133333  0.92933333  1.0
  Mo2.33+  Mo10  1  0.83866667  0.34733333  0.92933333  1.0
  Mo2.33+  Mo11  1  0.50866667  0.16133333  0.92933333  1.0
  Mo2.33+  Mo12  1  0.68066667  0.17533333  0.73733333  1.0
  Mo2.33+  Mo13  1  0.49466667  0.31933333  0.73733333  1.0
  Mo2.33+  Mo14  1  0.82466667  0.50533333  0.73733333  1.0
  Mo2.33+  Mo15  1  0.31933333  0.82466667  0.26266667  1.0
  Mo2.33+  Mo16  1  0.50533333  0.68066667  0.26266667  1.0
  Mo2.33+  Mo17  1  0.17533333  0.49466667  0.26266667  1.0
  Mo2.33+  Mo18  1  0.34733333  0.50866667  0.07066667  1.0
  Mo2.33+  Mo19  1  0.16133333  0.65266667  0.07066667  1.0
  Mo2.33+  Mo20  1  0.49133333  0.83866667  0.07066667  1.0
  Se2-  Se21  1  0.00000000  0.00000000  0.75700000  1.0
  Se2-  Se22  1  0.00000000  0.00000000  0.24300000  1.0
  Se2-  Se23  1  0.66666667  0.33333333  0.09033333  1.0
  Se2-  Se24  1  0.66666667  0.33333333  0.57633333  1.0
  Se2-  Se25  1  0.33333333  0.66666667  0.42366667  1.0
  Se2-  Se26  1  0.33333333  0.66666667  0.90966667  1.0
  Se2-  Se27  1  0.70200000  0.04000000  0.91700000  1.0
  Se2-  Se28  1  0.33800000  0.29800000  0.91700000  1.0
  Se2-  Se29  1  0.96000000  0.66200000  0.91700000  1.0
  Se2-  Se30  1  0.29800000  0.96000000  0.08300000  1.0
  Se2-  Se31  1  0.66200000  0.70200000  0.08300000  1.0
  Se2-  Se32  1  0.04000000  0.33800000  0.08300000  1.0
  Se2-  Se33  1  0.36866667  0.37333333  0.25033333  1.0
  Se2-  Se34  1  0.00466667  0.63133333  0.25033333  1.0
  Se2-  Se35  1  0.62666667  0.99533333  0.25033333  1.0
  Se2-  Se36  1  0.96466667  0.29333333  0.41633333  1.0
  Se2-  Se37  1  0.32866667  0.03533333  0.41633333  1.0
  Se2-  Se38  1  0.70666667  0.67133333  0.41633333  1.0
  Se2-  Se39  1  0.03533333  0.70666667  0.58366667  1.0
  Se2-  Se40  1  0.67133333  0.96466667  0.58366667  1.0
  Se2-  Se41  1  0.29333333  0.32866667  0.58366667  1.0
  Se2-  Se42  1  0.63133333  0.62666667  0.74966667  1.0
  Se2-  Se43  1  0.99533333  0.36866667  0.74966667  1.0
  Se2-  Se44  1  0.37333333  0.00466667  0.74966667  1.0
