# generated using pymatgen
data_Y(BRu)4
_symmetry_space_group_name_H-M   'P 1'
_cell_length_a   7.45400000
_cell_length_b   7.45400000
_cell_length_c   14.99400000
_cell_angle_alpha   90.00000000
_cell_angle_beta   90.00000000
_cell_angle_gamma   90.00000000
_symmetry_Int_Tables_number   1
_chemical_formula_structural   Y(BRu)4
_chemical_formula_sum   'Y8 B32 Ru32'
_cell_volume   833.09836730
_cell_formula_units_Z   8
loop_
 _symmetry_equiv_pos_site_id
 _symmetry_equiv_pos_as_xyz
  1  'x, y, z'
loop_
 _atom_type_symbol
 _atom_type_oxidation_number
  Y0+  0.0
  B0+  0.0
  Ru0+  0.0
loop_
 _atom_site_type_symbol
 _atom_site_label
 _atom_site_symmetry_multiplicity
 _atom_site_fract_x
 _atom_site_fract_y
 _atom_site_fract_z
 _atom_site_occupancy
  Y0+  Y0  1  0.50000000  0.75000000  0.62500000  1.0
  Y0+  Y1  1  0.50000000  0.75000000  0.12500000  1.0
  Y0+  Y2  1  0.00000000  0.75000000  0.87500000  1.0
  Y0+  Y3  1  0.00000000  0.75000000  0.37500000  1.0
  Y0+  Y4  1  0.50000000  0.25000000  0.37500000  1.0
  Y0+  Y5  1  0.50000000  0.25000000  0.87500000  1.0
  Y0+  Y6  1  0.00000000  0.25000000  0.12500000  1.0
  Y0+  Y7  1  0.00000000  0.25000000  0.62500000  1.0
  B0+  B8  1  0.33400000  0.89500000  0.45700000  1.0
  B0+  B9  1  0.66600000  0.89500000  0.95700000  1.0
  B0+  B10  1  0.14500000  0.58400000  0.70700000  1.0
  B0+  B11  1  0.85500000  0.58400000  0.20700000  1.0
  B0+  B12  1  0.66600000  0.10500000  0.54300000  1.0
  B0+  B13  1  0.33400000  0.10500000  0.04300000  1.0
  B0+  B14  1  0.85500000  0.41600000  0.29300000  1.0
  B0+  B15  1  0.14500000  0.41600000  0.79300000  1.0
  B0+  B16  1  0.33400000  0.60500000  0.95700000  1.0
  B0+  B17  1  0.66600000  0.60500000  0.45700000  1.0
  B0+  B18  1  0.14500000  0.91600000  0.20700000  1.0
  B0+  B19  1  0.85500000  0.91600000  0.70700000  1.0
  B0+  B20  1  0.66600000  0.39500000  0.04300000  1.0
  B0+  B21  1  0.33400000  0.39500000  0.54300000  1.0
  B0+  B22  1  0.85500000  0.08400000  0.79300000  1.0
  B0+  B23  1  0.14500000  0.08400000  0.29300000  1.0
  B0+  B24  1  0.83400000  0.39500000  0.95700000  1.0
  B0+  B25  1  0.16600000  0.39500000  0.45700000  1.0
  B0+  B26  1  0.64500000  0.08400000  0.20700000  1.0
  B0+  B27  1  0.35500000  0.08400000  0.70700000  1.0
  B0+  B28  1  0.16600000  0.60500000  0.04300000  1.0
  B0+  B29  1  0.83400000  0.60500000  0.54300000  1.0
  B0+  B30  1  0.35500000  0.91600000  0.79300000  1.0
  B0+  B31  1  0.64500000  0.91600000  0.29300000  1.0
  B0+  B32  1  0.83400000  0.10500000  0.45700000  1.0
  B0+  B33  1  0.16600000  0.10500000  0.95700000  1.0
  B0+  B34  1  0.64500000  0.41600000  0.70700000  1.0
  B0+  B35  1  0.35500000  0.41600000  0.20700000  1.0
  B0+  B36  1  0.16600000  0.89500000  0.54300000  1.0
  B0+  B37  1  0.83400000  0.89500000  0.04300000  1.0
  B0+  B38  1  0.35500000  0.58400000  0.29300000  1.0
  B0+  B39  1  0.64500000  0.58400000  0.79300000  1.0
  Ru0+  Ru40  1  0.38500000  0.10200000  0.56300000  1.0
  Ru0+  Ru41  1  0.61500000  0.10200000  0.06300000  1.0
  Ru0+  Ru42  1  0.35200000  0.63500000  0.81300000  1.0
  Ru0+  Ru43  1  0.64800000  0.63500000  0.31300000  1.0
  Ru0+  Ru44  1  0.61500000  0.89800000  0.43700000  1.0
  Ru0+  Ru45  1  0.38500000  0.89800000  0.93700000  1.0
  Ru0+  Ru46  1  0.64800000  0.36500000  0.18700000  1.0
  Ru0+  Ru47  1  0.35200000  0.36500000  0.68700000  1.0
  Ru0+  Ru48  1  0.38500000  0.39800000  0.06300000  1.0
  Ru0+  Ru49  1  0.61500000  0.39800000  0.56300000  1.0
  Ru0+  Ru50  1  0.35200000  0.86500000  0.31300000  1.0
  Ru0+  Ru51  1  0.64800000  0.86500000  0.81300000  1.0
  Ru0+  Ru52  1  0.61500000  0.60200000  0.93700000  1.0
  Ru0+  Ru53  1  0.38500000  0.60200000  0.43700000  1.0
  Ru0+  Ru54  1  0.64800000  0.13500000  0.68700000  1.0
  Ru0+  Ru55  1  0.35200000  0.13500000  0.18700000  1.0
  Ru0+  Ru56  1  0.88500000  0.60200000  0.06300000  1.0
  Ru0+  Ru57  1  0.11500000  0.60200000  0.56300000  1.0
  Ru0+  Ru58  1  0.85200000  0.13500000  0.31300000  1.0
  Ru0+  Ru59  1  0.14800000  0.13500000  0.81300000  1.0
  Ru0+  Ru60  1  0.11500000  0.39800000  0.93700000  1.0
  Ru0+  Ru61  1  0.88500000  0.39800000  0.43700000  1.0
  Ru0+  Ru62  1  0.14800000  0.86500000  0.68700000  1.0
  Ru0+  Ru63  1  0.85200000  0.86500000  0.18700000  1.0
  Ru0+  Ru64  1  0.88500000  0.89800000  0.56300000  1.0
  Ru0+  Ru65  1  0.11500000  0.89800000  0.06300000  1.0
  Ru0+  Ru66  1  0.85200000  0.36500000  0.81300000  1.0
  Ru0+  Ru67  1  0.14800000  0.36500000  0.31300000  1.0
  Ru0+  Ru68  1  0.11500000  0.10200000  0.43700000  1.0
  Ru0+  Ru69  1  0.88500000  0.10200000  0.93700000  1.0
  Ru0+  Ru70  1  0.14800000  0.63500000  0.18700000  1.0
  Ru0+  Ru71  1  0.85200000  0.63500000  0.68700000  1.0
