# generated using pymatgen
data_BaGaGe
_symmetry_space_group_name_H-M   'P 1'
_cell_length_a   4.30200000
_cell_length_b   4.30200000
_cell_length_c   20.56700000
_cell_angle_alpha   90.00000000
_cell_angle_beta   90.00000000
_cell_angle_gamma   120.00000000
_symmetry_Int_Tables_number   1
_chemical_formula_structural   BaGaGe
_chemical_formula_sum   'Ba4 Ga4 Ge4'
_cell_volume   329.64188724
_cell_formula_units_Z   4
loop_
 _symmetry_equiv_pos_site_id
 _symmetry_equiv_pos_as_xyz
  1  'x, y, z'
loop_
 _atom_type_symbol
 _atom_type_oxidation_number
  Ba0+  0.0
  Ga0+  0.0
  Ge0+  0.0
loop_
 _atom_site_type_symbol
 _atom_site_label
 _atom_site_symmetry_multiplicity
 _atom_site_fract_x
 _atom_site_fract_y
 _atom_site_fract_z
 _atom_site_occupancy
  Ba0+  Ba0  1  0.00000000  0.00000000  0.50000000  1.0
  Ba0+  Ba1  1  0.00000000  0.00000000  0.00000000  1.0
  Ba0+  Ba2  1  0.00000000  0.00000000  0.25000000  1.0
  Ba0+  Ba3  1  0.00000000  0.00000000  0.75000000  1.0
  Ga0+  Ga4  1  0.33333333  0.66666667  0.37000000  1.0
  Ga0+  Ga5  1  0.66666667  0.33333333  0.63000000  1.0
  Ga0+  Ga6  1  0.66666667  0.33333333  0.87000000  1.0
  Ga0+  Ga7  1  0.33333333  0.66666667  0.13000000  1.0
  Ge0+  Ge8  1  0.33333333  0.66666667  0.88500000  1.0
  Ge0+  Ge9  1  0.66666667  0.33333333  0.11500000  1.0
  Ge0+  Ge10  1  0.66666667  0.33333333  0.38500000  1.0
  Ge0+  Ge11  1  0.33333333  0.66666667  0.61500000  1.0
