# generated using pymatgen
data_Zr2Pd
_symmetry_space_group_name_H-M   'P 1'
_cell_length_a   3.31000000
_cell_length_b   3.31000000
_cell_length_c   10.84000000
_cell_angle_alpha   90.00000000
_cell_angle_beta   90.00000000
_cell_angle_gamma   90.00000000
_symmetry_Int_Tables_number   1
_chemical_formula_structural   Zr2Pd
_chemical_formula_sum   'Zr4 Pd2'
_cell_volume   118.76412400
_cell_formula_units_Z   2
loop_
 _symmetry_equiv_pos_site_id
 _symmetry_equiv_pos_as_xyz
  1  'x, y, z'
loop_
 _atom_type_symbol
 _atom_type_oxidation_number
  Zr0+  0.0
  Pd0+  0.0
loop_
 _atom_site_type_symbol
 _atom_site_label
 _atom_site_symmetry_multiplicity
 _atom_site_fract_x
 _atom_site_fract_y
 _atom_site_fract_z
 _atom_site_occupancy
  Zr0+  Zr0  1  0.00000000  0.00000000  0.65500000  1.0
  Zr0+  Zr1  1  0.00000000  0.00000000  0.34500000  1.0
  Zr0+  Zr2  1  0.50000000  0.50000000  0.15500000  1.0
  Zr0+  Zr3  1  0.50000000  0.50000000  0.84500000  1.0
  Pd0+  Pd4  1  0.00000000  0.00000000  0.00000000  1.0
  Pd0+  Pd5  1  0.50000000  0.50000000  0.50000000  1.0
