# generated using pymatgen
data_Ta3Be2
_symmetry_space_group_name_H-M   'P 1'
_cell_length_a   6.50000000
_cell_length_b   6.50000000
_cell_length_c   3.32000000
_cell_angle_alpha   90.00000000
_cell_angle_beta   90.00000000
_cell_angle_gamma   90.00000000
_symmetry_Int_Tables_number   1
_chemical_formula_structural   Ta3Be2
_chemical_formula_sum   'Ta6 Be4'
_cell_volume   140.27000000
_cell_formula_units_Z   2
loop_
 _symmetry_equiv_pos_site_id
 _symmetry_equiv_pos_as_xyz
  1  'x, y, z'
loop_
 _atom_type_symbol
 _atom_type_oxidation_number
  Ta0+  0.0
  Be0+  0.0
loop_
 _atom_site_type_symbol
 _atom_site_label
 _atom_site_symmetry_multiplicity
 _atom_site_fract_x
 _atom_site_fract_y
 _atom_site_fract_z
 _atom_site_occupancy
  Ta0+  Ta0  1  0.50000000  0.50000000  0.00000000  1.0
  Ta0+  Ta1  1  0.00000000  0.00000000  0.00000000  1.0
  Ta0+  Ta2  1  0.17900000  0.67900000  0.50000000  1.0
  Ta0+  Ta3  1  0.82100000  0.32100000  0.50000000  1.0
  Ta0+  Ta4  1  0.32100000  0.17900000  0.50000000  1.0
  Ta0+  Ta5  1  0.67900000  0.82100000  0.50000000  1.0
  Be0+  Be6  1  0.61700000  0.11700000  0.00000000  1.0
  Be0+  Be7  1  0.38300000  0.88300000  0.00000000  1.0
  Be0+  Be8  1  0.88300000  0.61700000  0.00000000  1.0
  Be0+  Be9  1  0.11700000  0.38300000  0.00000000  1.0
