# generated using pymatgen
data_Be22Tc
_symmetry_space_group_name_H-M   'P 1'
_cell_length_a   11.56600000
_cell_length_b   11.56600000
_cell_length_c   11.56600000
_cell_angle_alpha   90.00000000
_cell_angle_beta   90.00000000
_cell_angle_gamma   90.00000000
_symmetry_Int_Tables_number   1
_chemical_formula_structural   Be22Tc
_chemical_formula_sum   'Be176 Tc8'
_cell_volume   1547.21106950
_cell_formula_units_Z   8
loop_
 _symmetry_equiv_pos_site_id
 _symmetry_equiv_pos_as_xyz
  1  'x, y, z'
loop_
 _atom_type_symbol
 _atom_type_oxidation_number
  Be0+  0.0
  Tc0+  0.0
loop_
 _atom_site_type_symbol
 _atom_site_label
 _atom_site_symmetry_multiplicity
 _atom_site_fract_x
 _atom_site_fract_y
 _atom_site_fract_z
 _atom_site_occupancy
  Be0+  Be0  1  0.87500000  0.87500000  0.23900000  1.0
  Be0+  Be1  1  0.87500000  0.87500000  0.51100000  1.0
  Be0+  Be2  1  0.87500000  0.23900000  0.87500000  1.0
  Be0+  Be3  1  0.87500000  0.51100000  0.87500000  1.0
  Be0+  Be4  1  0.23900000  0.87500000  0.87500000  1.0
  Be0+  Be5  1  0.51100000  0.87500000  0.87500000  1.0
  Be0+  Be6  1  0.12500000  0.12500000  0.76100000  1.0
  Be0+  Be7  1  0.12500000  0.12500000  0.48900000  1.0
  Be0+  Be8  1  0.12500000  0.76100000  0.12500000  1.0
  Be0+  Be9  1  0.12500000  0.48900000  0.12500000  1.0
  Be0+  Be10  1  0.76100000  0.12500000  0.12500000  1.0
  Be0+  Be11  1  0.48900000  0.12500000  0.12500000  1.0
  Be0+  Be12  1  0.87500000  0.37500000  0.73900000  1.0
  Be0+  Be13  1  0.87500000  0.37500000  0.01100000  1.0
  Be0+  Be14  1  0.87500000  0.73900000  0.37500000  1.0
  Be0+  Be15  1  0.87500000  0.01100000  0.37500000  1.0
  Be0+  Be16  1  0.23900000  0.37500000  0.37500000  1.0
  Be0+  Be17  1  0.51100000  0.37500000  0.37500000  1.0
  Be0+  Be18  1  0.12500000  0.62500000  0.26100000  1.0
  Be0+  Be19  1  0.12500000  0.62500000  0.98900000  1.0
  Be0+  Be20  1  0.12500000  0.26100000  0.62500000  1.0
  Be0+  Be21  1  0.12500000  0.98900000  0.62500000  1.0
  Be0+  Be22  1  0.76100000  0.62500000  0.62500000  1.0
  Be0+  Be23  1  0.48900000  0.62500000  0.62500000  1.0
  Be0+  Be24  1  0.37500000  0.87500000  0.73900000  1.0
  Be0+  Be25  1  0.37500000  0.87500000  0.01100000  1.0
  Be0+  Be26  1  0.37500000  0.23900000  0.37500000  1.0
  Be0+  Be27  1  0.37500000  0.51100000  0.37500000  1.0
  Be0+  Be28  1  0.73900000  0.87500000  0.37500000  1.0
  Be0+  Be29  1  0.01100000  0.87500000  0.37500000  1.0
  Be0+  Be30  1  0.62500000  0.12500000  0.26100000  1.0
  Be0+  Be31  1  0.62500000  0.12500000  0.98900000  1.0
  Be0+  Be32  1  0.62500000  0.76100000  0.62500000  1.0
  Be0+  Be33  1  0.62500000  0.48900000  0.62500000  1.0
  Be0+  Be34  1  0.26100000  0.12500000  0.62500000  1.0
  Be0+  Be35  1  0.98900000  0.12500000  0.62500000  1.0
  Be0+  Be36  1  0.37500000  0.37500000  0.23900000  1.0
  Be0+  Be37  1  0.37500000  0.37500000  0.51100000  1.0
  Be0+  Be38  1  0.37500000  0.73900000  0.87500000  1.0
  Be0+  Be39  1  0.37500000  0.01100000  0.87500000  1.0
  Be0+  Be40  1  0.73900000  0.37500000  0.87500000  1.0
  Be0+  Be41  1  0.01100000  0.37500000  0.87500000  1.0
  Be0+  Be42  1  0.62500000  0.62500000  0.76100000  1.0
  Be0+  Be43  1  0.62500000  0.62500000  0.48900000  1.0
  Be0+  Be44  1  0.62500000  0.26100000  0.12500000  1.0
  Be0+  Be45  1  0.62500000  0.98900000  0.12500000  1.0
  Be0+  Be46  1  0.26100000  0.62500000  0.12500000  1.0
  Be0+  Be47  1  0.98900000  0.62500000  0.12500000  1.0
  Be0+  Be48  1  0.67600000  0.81000000  0.81000000  1.0
  Be0+  Be49  1  0.07400000  0.94000000  0.81000000  1.0
  Be0+  Be50  1  0.07400000  0.81000000  0.94000000  1.0
  Be0+  Be51  1  0.67600000  0.94000000  0.94000000  1.0
  Be0+  Be52  1  0.81000000  0.81000000  0.67600000  1.0
  Be0+  Be53  1  0.94000000  0.81000000  0.07400000  1.0
  Be0+  Be54  1  0.81000000  0.94000000  0.07400000  1.0
  Be0+  Be55  1  0.94000000  0.94000000  0.67600000  1.0
  Be0+  Be56  1  0.81000000  0.67600000  0.81000000  1.0
  Be0+  Be57  1  0.81000000  0.07400000  0.94000000  1.0
  Be0+  Be58  1  0.94000000  0.07400000  0.81000000  1.0
  Be0+  Be59  1  0.94000000  0.67600000  0.94000000  1.0
  Be0+  Be60  1  0.32400000  0.19000000  0.19000000  1.0
  Be0+  Be61  1  0.92600000  0.06000000  0.19000000  1.0
  Be0+  Be62  1  0.92600000  0.19000000  0.06000000  1.0
  Be0+  Be63  1  0.32400000  0.06000000  0.06000000  1.0
  Be0+  Be64  1  0.19000000  0.19000000  0.32400000  1.0
  Be0+  Be65  1  0.06000000  0.19000000  0.92600000  1.0
  Be0+  Be66  1  0.19000000  0.06000000  0.92600000  1.0
  Be0+  Be67  1  0.06000000  0.06000000  0.32400000  1.0
  Be0+  Be68  1  0.19000000  0.32400000  0.19000000  1.0
  Be0+  Be69  1  0.19000000  0.92600000  0.06000000  1.0
  Be0+  Be70  1  0.06000000  0.92600000  0.19000000  1.0
  Be0+  Be71  1  0.06000000  0.32400000  0.06000000  1.0
  Be0+  Be72  1  0.67600000  0.31000000  0.31000000  1.0
  Be0+  Be73  1  0.07400000  0.44000000  0.31000000  1.0
  Be0+  Be74  1  0.07400000  0.31000000  0.44000000  1.0
  Be0+  Be75  1  0.67600000  0.44000000  0.44000000  1.0
  Be0+  Be76  1  0.81000000  0.31000000  0.17600000  1.0
  Be0+  Be77  1  0.94000000  0.31000000  0.57400000  1.0
  Be0+  Be78  1  0.81000000  0.44000000  0.57400000  1.0
  Be0+  Be79  1  0.94000000  0.44000000  0.17600000  1.0
  Be0+  Be80  1  0.81000000  0.17600000  0.31000000  1.0
  Be0+  Be81  1  0.81000000  0.57400000  0.44000000  1.0
  Be0+  Be82  1  0.94000000  0.57400000  0.31000000  1.0
  Be0+  Be83  1  0.94000000  0.17600000  0.44000000  1.0
  Be0+  Be84  1  0.32400000  0.69000000  0.69000000  1.0
  Be0+  Be85  1  0.92600000  0.56000000  0.69000000  1.0
  Be0+  Be86  1  0.92600000  0.69000000  0.56000000  1.0
  Be0+  Be87  1  0.32400000  0.56000000  0.56000000  1.0
  Be0+  Be88  1  0.19000000  0.69000000  0.82400000  1.0
  Be0+  Be89  1  0.06000000  0.69000000  0.42600000  1.0
  Be0+  Be90  1  0.19000000  0.56000000  0.42600000  1.0
  Be0+  Be91  1  0.06000000  0.56000000  0.82400000  1.0
  Be0+  Be92  1  0.19000000  0.82400000  0.69000000  1.0
  Be0+  Be93  1  0.19000000  0.42600000  0.56000000  1.0
  Be0+  Be94  1  0.06000000  0.42600000  0.69000000  1.0
  Be0+  Be95  1  0.06000000  0.82400000  0.56000000  1.0
  Be0+  Be96  1  0.17600000  0.81000000  0.31000000  1.0
  Be0+  Be97  1  0.57400000  0.94000000  0.31000000  1.0
  Be0+  Be98  1  0.57400000  0.81000000  0.44000000  1.0
  Be0+  Be99  1  0.17600000  0.94000000  0.44000000  1.0
  Be0+  Be100  1  0.31000000  0.81000000  0.17600000  1.0
  Be0+  Be101  1  0.44000000  0.81000000  0.57400000  1.0
  Be0+  Be102  1  0.31000000  0.94000000  0.57400000  1.0
  Be0+  Be103  1  0.44000000  0.94000000  0.17600000  1.0
  Be0+  Be104  1  0.31000000  0.67600000  0.31000000  1.0
  Be0+  Be105  1  0.31000000  0.07400000  0.44000000  1.0
  Be0+  Be106  1  0.44000000  0.07400000  0.31000000  1.0
  Be0+  Be107  1  0.44000000  0.67600000  0.44000000  1.0
  Be0+  Be108  1  0.82400000  0.19000000  0.69000000  1.0
  Be0+  Be109  1  0.42600000  0.06000000  0.69000000  1.0
  Be0+  Be110  1  0.42600000  0.19000000  0.56000000  1.0
  Be0+  Be111  1  0.82400000  0.06000000  0.56000000  1.0
  Be0+  Be112  1  0.69000000  0.19000000  0.82400000  1.0
  Be0+  Be113  1  0.56000000  0.19000000  0.42600000  1.0
  Be0+  Be114  1  0.69000000  0.06000000  0.42600000  1.0
  Be0+  Be115  1  0.56000000  0.06000000  0.82400000  1.0
  Be0+  Be116  1  0.69000000  0.32400000  0.69000000  1.0
  Be0+  Be117  1  0.69000000  0.92600000  0.56000000  1.0
  Be0+  Be118  1  0.56000000  0.92600000  0.69000000  1.0
  Be0+  Be119  1  0.56000000  0.32400000  0.56000000  1.0
  Be0+  Be120  1  0.17600000  0.31000000  0.81000000  1.0
  Be0+  Be121  1  0.57400000  0.44000000  0.81000000  1.0
  Be0+  Be122  1  0.57400000  0.31000000  0.94000000  1.0
  Be0+  Be123  1  0.17600000  0.44000000  0.94000000  1.0
  Be0+  Be124  1  0.31000000  0.31000000  0.67600000  1.0
  Be0+  Be125  1  0.44000000  0.31000000  0.07400000  1.0
  Be0+  Be126  1  0.31000000  0.44000000  0.07400000  1.0
  Be0+  Be127  1  0.44000000  0.44000000  0.67600000  1.0
  Be0+  Be128  1  0.31000000  0.17600000  0.81000000  1.0
  Be0+  Be129  1  0.31000000  0.57400000  0.94000000  1.0
  Be0+  Be130  1  0.44000000  0.57400000  0.81000000  1.0
  Be0+  Be131  1  0.44000000  0.17600000  0.94000000  1.0
  Be0+  Be132  1  0.82400000  0.69000000  0.19000000  1.0
  Be0+  Be133  1  0.42600000  0.56000000  0.19000000  1.0
  Be0+  Be134  1  0.42600000  0.69000000  0.06000000  1.0
  Be0+  Be135  1  0.82400000  0.56000000  0.06000000  1.0
  Be0+  Be136  1  0.69000000  0.69000000  0.32400000  1.0
  Be0+  Be137  1  0.56000000  0.69000000  0.92600000  1.0
  Be0+  Be138  1  0.69000000  0.56000000  0.92600000  1.0
  Be0+  Be139  1  0.56000000  0.56000000  0.32400000  1.0
  Be0+  Be140  1  0.69000000  0.82400000  0.19000000  1.0
  Be0+  Be141  1  0.69000000  0.42600000  0.06000000  1.0
  Be0+  Be142  1  0.56000000  0.42600000  0.19000000  1.0
  Be0+  Be143  1  0.56000000  0.82400000  0.06000000  1.0
  Be0+  Be144  1  0.00000000  0.75000000  0.75000000  1.0
  Be0+  Be145  1  0.75000000  0.00000000  0.75000000  1.0
  Be0+  Be146  1  0.75000000  0.75000000  0.00000000  1.0
  Be0+  Be147  1  0.00000000  0.00000000  0.00000000  1.0
  Be0+  Be148  1  0.00000000  0.25000000  0.25000000  1.0
  Be0+  Be149  1  0.25000000  0.00000000  0.25000000  1.0
  Be0+  Be150  1  0.25000000  0.25000000  0.00000000  1.0
  Be0+  Be151  1  0.75000000  0.50000000  0.25000000  1.0
  Be0+  Be152  1  0.75000000  0.25000000  0.50000000  1.0
  Be0+  Be153  1  0.00000000  0.50000000  0.50000000  1.0
  Be0+  Be154  1  0.25000000  0.50000000  0.75000000  1.0
  Be0+  Be155  1  0.25000000  0.75000000  0.50000000  1.0
  Be0+  Be156  1  0.50000000  0.75000000  0.25000000  1.0
  Be0+  Be157  1  0.50000000  0.00000000  0.50000000  1.0
  Be0+  Be158  1  0.50000000  0.25000000  0.75000000  1.0
  Be0+  Be159  1  0.50000000  0.50000000  0.00000000  1.0
  Be0+  Be160  1  0.50000000  0.25000000  0.25000000  1.0
  Be0+  Be161  1  0.25000000  0.50000000  0.25000000  1.0
  Be0+  Be162  1  0.25000000  0.25000000  0.50000000  1.0
  Be0+  Be163  1  0.50000000  0.50000000  0.50000000  1.0
  Be0+  Be164  1  0.50000000  0.75000000  0.75000000  1.0
  Be0+  Be165  1  0.75000000  0.50000000  0.75000000  1.0
  Be0+  Be166  1  0.75000000  0.75000000  0.50000000  1.0
  Be0+  Be167  1  0.25000000  0.00000000  0.75000000  1.0
  Be0+  Be168  1  0.25000000  0.75000000  0.00000000  1.0
  Be0+  Be169  1  0.50000000  0.00000000  0.00000000  1.0
  Be0+  Be170  1  0.75000000  0.00000000  0.25000000  1.0
  Be0+  Be171  1  0.75000000  0.25000000  0.00000000  1.0
  Be0+  Be172  1  0.00000000  0.25000000  0.75000000  1.0
  Be0+  Be173  1  0.00000000  0.50000000  0.00000000  1.0
  Be0+  Be174  1  0.00000000  0.75000000  0.25000000  1.0
  Be0+  Be175  1  0.00000000  0.00000000  0.50000000  1.0
  Tc0+  Tc176  1  0.87500000  0.87500000  0.87500000  1.0
  Tc0+  Tc177  1  0.12500000  0.12500000  0.12500000  1.0
  Tc0+  Tc178  1  0.87500000  0.37500000  0.37500000  1.0
  Tc0+  Tc179  1  0.12500000  0.62500000  0.62500000  1.0
  Tc0+  Tc180  1  0.37500000  0.87500000  0.37500000  1.0
  Tc0+  Tc181  1  0.62500000  0.12500000  0.62500000  1.0
  Tc0+  Tc182  1  0.37500000  0.37500000  0.87500000  1.0
  Tc0+  Tc183  1  0.62500000  0.62500000  0.12500000  1.0
