# generated using pymatgen
data_Ni3(BiS)2
_symmetry_space_group_name_H-M   'P 1'
_cell_length_a   11.07400000
_cell_length_b   8.09100000
_cell_length_c   7.97000000
_cell_angle_alpha   90.00000000
_cell_angle_beta   134.00000000
_cell_angle_gamma   90.00000000
_symmetry_Int_Tables_number   1
_chemical_formula_structural   Ni3(BiS)2
_chemical_formula_sum   'Ni12 Bi8 S8'
_cell_volume   513.68765848
_cell_formula_units_Z   4
loop_
 _symmetry_equiv_pos_site_id
 _symmetry_equiv_pos_as_xyz
  1  'x, y, z'
loop_
 _atom_type_symbol
 _atom_type_oxidation_number
  Ni0+  0.0
  Bi0+  0.0
  S0+  0.0
loop_
 _atom_site_type_symbol
 _atom_site_label
 _atom_site_symmetry_multiplicity
 _atom_site_fract_x
 _atom_site_fract_y
 _atom_site_fract_z
 _atom_site_occupancy
  Ni0+  Ni0  1  0.75000000  0.25000000  0.50000000  1.0
  Ni0+  Ni1  1  0.75000000  0.75000000  0.50000000  1.0
  Ni0+  Ni2  1  0.25000000  0.75000000  0.50000000  1.0
  Ni0+  Ni3  1  0.25000000  0.25000000  0.50000000  1.0
  Ni0+  Ni4  1  0.98200000  0.00000000  0.21000000  1.0
  Ni0+  Ni5  1  0.01800000  0.00000000  0.79000000  1.0
  Ni0+  Ni6  1  0.48200000  0.50000000  0.21000000  1.0
  Ni0+  Ni7  1  0.51800000  0.50000000  0.79000000  1.0
  Ni0+  Ni8  1  0.00000000  0.27400000  0.50000000  1.0
  Ni0+  Ni9  1  0.00000000  0.72600000  0.50000000  1.0
  Ni0+  Ni10  1  0.50000000  0.77400000  0.50000000  1.0
  Ni0+  Ni11  1  0.50000000  0.22600000  0.50000000  1.0
  Bi0+  Bi12  1  0.74900000  0.00000000  0.74300000  1.0
  Bi0+  Bi13  1  0.25100000  0.00000000  0.25700000  1.0
  Bi0+  Bi14  1  0.24900000  0.50000000  0.74300000  1.0
  Bi0+  Bi15  1  0.75100000  0.50000000  0.25700000  1.0
  Bi0+  Bi16  1  0.78200000  0.00000000  0.29800000  1.0
  Bi0+  Bi17  1  0.21800000  0.00000000  0.70200000  1.0
  Bi0+  Bi18  1  0.28200000  0.50000000  0.29800000  1.0
  Bi0+  Bi19  1  0.71800000  0.50000000  0.70200000  1.0
  S0+  S20  1  0.97300000  0.28300000  0.19000000  1.0
  S0+  S21  1  0.97300000  0.71700000  0.19000000  1.0
  S0+  S22  1  0.02700000  0.71700000  0.81000000  1.0
  S0+  S23  1  0.02700000  0.28300000  0.81000000  1.0
  S0+  S24  1  0.47300000  0.78300000  0.19000000  1.0
  S0+  S25  1  0.47300000  0.21700000  0.19000000  1.0
  S0+  S26  1  0.52700000  0.21700000  0.81000000  1.0
  S0+  S27  1  0.52700000  0.78300000  0.81000000  1.0
