# generated using pymatgen
data_BiPdSe
_symmetry_space_group_name_H-M   'P 1'
_cell_length_a   6.43200000
_cell_length_b   6.43200000
_cell_length_c   6.43200000
_cell_angle_alpha   90.00000000
_cell_angle_beta   90.00000000
_cell_angle_gamma   90.00000000
_symmetry_Int_Tables_number   1
_chemical_formula_structural   BiPdSe
_chemical_formula_sum   'Bi4 Pd4 Se4'
_cell_volume   266.09585357
_cell_formula_units_Z   4
loop_
 _symmetry_equiv_pos_site_id
 _symmetry_equiv_pos_as_xyz
  1  'x, y, z'
loop_
 _atom_type_symbol
 _atom_type_oxidation_number
  Bi0+  0.0
  Pd0+  0.0
  Se0+  0.0
loop_
 _atom_site_type_symbol
 _atom_site_label
 _atom_site_symmetry_multiplicity
 _atom_site_fract_x
 _atom_site_fract_y
 _atom_site_fract_z
 _atom_site_occupancy
  Bi0+  Bi0  1  0.12300000  0.62300000  0.87700000  1.0
  Bi0+  Bi1  1  0.62300000  0.87700000  0.12300000  1.0
  Bi0+  Bi2  1  0.87700000  0.12300000  0.62300000  1.0
  Bi0+  Bi3  1  0.37700000  0.37700000  0.37700000  1.0
  Pd0+  Pd4  1  0.49600000  0.99600000  0.50400000  1.0
  Pd0+  Pd5  1  0.99600000  0.50400000  0.49600000  1.0
  Pd0+  Pd6  1  0.50400000  0.49600000  0.99600000  1.0
  Pd0+  Pd7  1  0.00400000  0.00400000  0.00400000  1.0
  Se0+  Se8  1  0.88200000  0.38200000  0.11800000  1.0
  Se0+  Se9  1  0.38200000  0.11800000  0.88200000  1.0
  Se0+  Se10  1  0.11800000  0.88200000  0.38200000  1.0
  Se0+  Se11  1  0.61800000  0.61800000  0.61800000  1.0
