# generated using pymatgen
data_Bi2Pd3Se2
_symmetry_space_group_name_H-M   'P 1'
_cell_length_a   11.73700000
_cell_length_b   8.43100000
_cell_length_c   8.41500000
_cell_angle_alpha   90.00000000
_cell_angle_beta   133.88000000
_cell_angle_gamma   90.00000000
_symmetry_Int_Tables_number   1
_chemical_formula_structural   Bi2Pd3Se2
_chemical_formula_sum   'Bi8 Pd12 Se8'
_cell_volume   600.20684116
_cell_formula_units_Z   4
loop_
 _symmetry_equiv_pos_site_id
 _symmetry_equiv_pos_as_xyz
  1  'x, y, z'
loop_
 _atom_type_symbol
 _atom_type_oxidation_number
  Bi0+  0.0
  Pd0+  0.0
  Se0+  0.0
loop_
 _atom_site_type_symbol
 _atom_site_label
 _atom_site_symmetry_multiplicity
 _atom_site_fract_x
 _atom_site_fract_y
 _atom_site_fract_z
 _atom_site_occupancy
  Bi0+  Bi0  1  0.74900000  0.00000000  0.74300000  1.0
  Bi0+  Bi1  1  0.25100000  0.00000000  0.25700000  1.0
  Bi0+  Bi2  1  0.24900000  0.50000000  0.74300000  1.0
  Bi0+  Bi3  1  0.75100000  0.50000000  0.25700000  1.0
  Bi0+  Bi4  1  0.78200000  0.00000000  0.29800000  1.0
  Bi0+  Bi5  1  0.21800000  0.00000000  0.70200000  1.0
  Bi0+  Bi6  1  0.28200000  0.50000000  0.29800000  1.0
  Bi0+  Bi7  1  0.71800000  0.50000000  0.70200000  1.0
  Pd0+  Pd8  1  0.75000000  0.25000000  0.50000000  1.0
  Pd0+  Pd9  1  0.75000000  0.75000000  0.50000000  1.0
  Pd0+  Pd10  1  0.25000000  0.75000000  0.50000000  1.0
  Pd0+  Pd11  1  0.25000000  0.25000000  0.50000000  1.0
  Pd0+  Pd12  1  0.98200000  0.00000000  0.21000000  1.0
  Pd0+  Pd13  1  0.01800000  0.00000000  0.79000000  1.0
  Pd0+  Pd14  1  0.48200000  0.50000000  0.21000000  1.0
  Pd0+  Pd15  1  0.51800000  0.50000000  0.79000000  1.0
  Pd0+  Pd16  1  0.00000000  0.27400000  0.50000000  1.0
  Pd0+  Pd17  1  0.00000000  0.72600000  0.50000000  1.0
  Pd0+  Pd18  1  0.50000000  0.77400000  0.50000000  1.0
  Pd0+  Pd19  1  0.50000000  0.22600000  0.50000000  1.0
  Se0+  Se20  1  0.97300000  0.28300000  0.19000000  1.0
  Se0+  Se21  1  0.97300000  0.71700000  0.19000000  1.0
  Se0+  Se22  1  0.02700000  0.71700000  0.81000000  1.0
  Se0+  Se23  1  0.02700000  0.28300000  0.81000000  1.0
  Se0+  Se24  1  0.47300000  0.78300000  0.19000000  1.0
  Se0+  Se25  1  0.47300000  0.21700000  0.19000000  1.0
  Se0+  Se26  1  0.52700000  0.21700000  0.81000000  1.0
  Se0+  Se27  1  0.52700000  0.78300000  0.81000000  1.0
