# generated using pymatgen
data_In2Ag
_symmetry_space_group_name_H-M   'P 1'
_cell_length_a   6.87000000
_cell_length_b   6.87000000
_cell_length_c   5.60000000
_cell_angle_alpha   90.00000000
_cell_angle_beta   90.00000000
_cell_angle_gamma   90.00000000
_symmetry_Int_Tables_number   1
_chemical_formula_structural   In2Ag
_chemical_formula_sum   'In8 Ag4'
_cell_volume   264.30264000
_cell_formula_units_Z   4
loop_
 _symmetry_equiv_pos_site_id
 _symmetry_equiv_pos_as_xyz
  1  'x, y, z'
loop_
 _atom_type_symbol
 _atom_type_oxidation_number
  In0+  0.0
  Ag0+  0.0
loop_
 _atom_site_type_symbol
 _atom_site_label
 _atom_site_symmetry_multiplicity
 _atom_site_fract_x
 _atom_site_fract_y
 _atom_site_fract_z
 _atom_site_occupancy
  In0+  In0  1  0.65800000  0.15800000  0.50000000  1.0
  In0+  In1  1  0.34200000  0.84200000  0.50000000  1.0
  In0+  In2  1  0.34200000  0.15800000  0.00000000  1.0
  In0+  In3  1  0.65800000  0.84200000  0.00000000  1.0
  In0+  In4  1  0.15800000  0.34200000  0.50000000  1.0
  In0+  In5  1  0.84200000  0.65800000  0.50000000  1.0
  In0+  In6  1  0.15800000  0.65800000  0.00000000  1.0
  In0+  In7  1  0.84200000  0.34200000  0.00000000  1.0
  Ag0+  Ag8  1  0.00000000  0.00000000  0.25000000  1.0
  Ag0+  Ag9  1  0.00000000  0.00000000  0.75000000  1.0
  Ag0+  Ag10  1  0.50000000  0.50000000  0.75000000  1.0
  Ag0+  Ag11  1  0.50000000  0.50000000  0.25000000  1.0
