# generated using pymatgen
data_BiPtSe
_symmetry_space_group_name_H-M   'P 1'
_cell_length_a   6.42000000
_cell_length_b   6.42000000
_cell_length_c   6.42000000
_cell_angle_alpha   90.00000000
_cell_angle_beta   90.00000000
_cell_angle_gamma   90.00000000
_symmetry_Int_Tables_number   1
_chemical_formula_structural   BiPtSe
_chemical_formula_sum   'Bi4 Pt4 Se4'
_cell_volume   264.60928800
_cell_formula_units_Z   4
loop_
 _symmetry_equiv_pos_site_id
 _symmetry_equiv_pos_as_xyz
  1  'x, y, z'
loop_
 _atom_type_symbol
 _atom_type_oxidation_number
  Bi2-  -2.0
  Pt3+  3.0
  Se-  -1.0
loop_
 _atom_site_type_symbol
 _atom_site_label
 _atom_site_symmetry_multiplicity
 _atom_site_fract_x
 _atom_site_fract_y
 _atom_site_fract_z
 _atom_site_occupancy
  Bi2-  Bi0  1  0.13000000  0.63000000  0.87000000  1.0
  Bi2-  Bi1  1  0.63000000  0.87000000  0.13000000  1.0
  Bi2-  Bi2  1  0.87000000  0.13000000  0.63000000  1.0
  Bi2-  Bi3  1  0.37000000  0.37000000  0.37000000  1.0
  Pt3+  Pt4  1  0.49000000  0.99000000  0.51000000  1.0
  Pt3+  Pt5  1  0.99000000  0.51000000  0.49000000  1.0
  Pt3+  Pt6  1  0.51000000  0.49000000  0.99000000  1.0
  Pt3+  Pt7  1  0.01000000  0.01000000  0.01000000  1.0
  Se-  Se8  1  0.87500000  0.37500000  0.12500000  1.0
  Se-  Se9  1  0.37500000  0.12500000  0.87500000  1.0
  Se-  Se10  1  0.12500000  0.87500000  0.37500000  1.0
  Se-  Se11  1  0.62500000  0.62500000  0.62500000  1.0
