# generated using pymatgen
data_Y2FeC4
_symmetry_space_group_name_H-M   'P 1'
_cell_length_a   7.52900000
_cell_length_b   9.56500000
_cell_length_c   5.04060000
_cell_angle_alpha   90.00000000
_cell_angle_beta   90.00000000
_cell_angle_gamma   90.00000000
_symmetry_Int_Tables_number   1
_chemical_formula_structural   Y2FeC4
_chemical_formula_sum   'Y8 Fe4 C16'
_cell_volume   362.99822933
_cell_formula_units_Z   4
loop_
 _symmetry_equiv_pos_site_id
 _symmetry_equiv_pos_as_xyz
  1  'x, y, z'
loop_
 _atom_type_symbol
 _atom_type_oxidation_number
  Y0+  0.0
  Fe0+  0.0
  C0+  0.0
loop_
 _atom_site_type_symbol
 _atom_site_label
 _atom_site_symmetry_multiplicity
 _atom_site_fract_x
 _atom_site_fract_y
 _atom_site_fract_z
 _atom_site_occupancy
  Y0+  Y0  1  0.84400000  0.35400000  0.50000000  1.0
  Y0+  Y1  1  0.15600000  0.64600000  0.50000000  1.0
  Y0+  Y2  1  0.15600000  0.35400000  0.00000000  1.0
  Y0+  Y3  1  0.84400000  0.64600000  0.00000000  1.0
  Y0+  Y4  1  0.34400000  0.85400000  0.00000000  1.0
  Y0+  Y5  1  0.65600000  0.14600000  0.00000000  1.0
  Y0+  Y6  1  0.65600000  0.85400000  0.50000000  1.0
  Y0+  Y7  1  0.34400000  0.14600000  0.50000000  1.0
  Fe0+  Fe8  1  0.00000000  0.00000000  0.75000000  1.0
  Fe0+  Fe9  1  0.00000000  0.00000000  0.25000000  1.0
  Fe0+  Fe10  1  0.50000000  0.50000000  0.25000000  1.0
  Fe0+  Fe11  1  0.50000000  0.50000000  0.75000000  1.0
  C0+  C12  1  0.65800000  0.13100000  0.50000000  1.0
  C0+  C13  1  0.34200000  0.86900000  0.50000000  1.0
  C0+  C14  1  0.34200000  0.13100000  0.00000000  1.0
  C0+  C15  1  0.65800000  0.86900000  0.00000000  1.0
  C0+  C16  1  0.15800000  0.63100000  0.00000000  1.0
  C0+  C17  1  0.84200000  0.36900000  0.00000000  1.0
  C0+  C18  1  0.84200000  0.63100000  0.50000000  1.0
  C0+  C19  1  0.15800000  0.36900000  0.50000000  1.0
  C0+  C20  1  0.82300000  0.07800000  0.50000000  1.0
  C0+  C21  1  0.17700000  0.92200000  0.50000000  1.0
  C0+  C22  1  0.17700000  0.07800000  0.00000000  1.0
  C0+  C23  1  0.82300000  0.92200000  0.00000000  1.0
  C0+  C24  1  0.32300000  0.57800000  0.00000000  1.0
  C0+  C25  1  0.67700000  0.42200000  0.00000000  1.0
  C0+  C26  1  0.67700000  0.57800000  0.50000000  1.0
  C0+  C27  1  0.32300000  0.42200000  0.50000000  1.0
