# generated using pymatgen
data_GaMo2C
_symmetry_space_group_name_H-M   'P 1'
_cell_length_a   3.01700000
_cell_length_b   3.01700000
_cell_length_c   13.18000000
_cell_angle_alpha   90.00000000
_cell_angle_beta   90.00000000
_cell_angle_gamma   120.00000000
_symmetry_Int_Tables_number   1
_chemical_formula_structural   GaMo2C
_chemical_formula_sum   'Ga2 Mo4 C2'
_cell_volume   103.89548202
_cell_formula_units_Z   2
loop_
 _symmetry_equiv_pos_site_id
 _symmetry_equiv_pos_as_xyz
  1  'x, y, z'
loop_
 _atom_type_symbol
 _atom_type_oxidation_number
  Ga0+  0.0
  Mo0+  0.0
  C0+  0.0
loop_
 _atom_site_type_symbol
 _atom_site_label
 _atom_site_symmetry_multiplicity
 _atom_site_fract_x
 _atom_site_fract_y
 _atom_site_fract_z
 _atom_site_occupancy
  Ga0+  Ga0  1  0.33333333  0.66666667  0.75000000  1.0
  Ga0+  Ga1  1  0.66666667  0.33333333  0.25000000  1.0
  Mo0+  Mo2  1  0.33333333  0.66666667  0.41200000  1.0
  Mo0+  Mo3  1  0.66666667  0.33333333  0.58800000  1.0
  Mo0+  Mo4  1  0.66666667  0.33333333  0.91200000  1.0
  Mo0+  Mo5  1  0.33333333  0.66666667  0.08800000  1.0
  C0+  C6  1  0.00000000  0.00000000  0.50000000  1.0
  C0+  C7  1  0.00000000  0.00000000  0.00000000  1.0
