# generated using pymatgen
data_La2C3
_symmetry_space_group_name_H-M   'P 1'
_cell_length_a   8.82000000
_cell_length_b   8.82000000
_cell_length_c   8.82000000
_cell_angle_alpha   90.00000000
_cell_angle_beta   90.00000000
_cell_angle_gamma   90.00000000
_symmetry_Int_Tables_number   1
_chemical_formula_structural   La2C3
_chemical_formula_sum   'La16 C24'
_cell_volume   686.12896800
_cell_formula_units_Z   8
loop_
 _symmetry_equiv_pos_site_id
 _symmetry_equiv_pos_as_xyz
  1  'x, y, z'
loop_
 _atom_type_symbol
 _atom_type_oxidation_number
  La0+  0.0
  C0+  0.0
loop_
 _atom_site_type_symbol
 _atom_site_label
 _atom_site_symmetry_multiplicity
 _atom_site_fract_x
 _atom_site_fract_y
 _atom_site_fract_z
 _atom_site_occupancy
  La0+  La0  1  0.20000000  0.70000000  0.80000000  1.0
  La0+  La1  1  0.80000000  0.20000000  0.70000000  1.0
  La0+  La2  1  0.70000000  0.80000000  0.20000000  1.0
  La0+  La3  1  0.30000000  0.30000000  0.30000000  1.0
  La0+  La4  1  0.55000000  0.45000000  0.95000000  1.0
  La0+  La5  1  0.45000000  0.95000000  0.55000000  1.0
  La0+  La6  1  0.95000000  0.55000000  0.45000000  1.0
  La0+  La7  1  0.05000000  0.05000000  0.05000000  1.0
  La0+  La8  1  0.70000000  0.20000000  0.30000000  1.0
  La0+  La9  1  0.30000000  0.70000000  0.20000000  1.0
  La0+  La10  1  0.20000000  0.30000000  0.70000000  1.0
  La0+  La11  1  0.80000000  0.80000000  0.80000000  1.0
  La0+  La12  1  0.05000000  0.95000000  0.45000000  1.0
  La0+  La13  1  0.95000000  0.45000000  0.05000000  1.0
  La0+  La14  1  0.45000000  0.05000000  0.95000000  1.0
  La0+  La15  1  0.55000000  0.55000000  0.55000000  1.0
  C0+  C16  1  0.25000000  0.46000000  0.00000000  1.0
  C0+  C17  1  0.75000000  0.96000000  0.50000000  1.0
  C0+  C18  1  0.75000000  0.04000000  0.00000000  1.0
  C0+  C19  1  0.25000000  0.54000000  0.50000000  1.0
  C0+  C20  1  0.75000000  0.21000000  0.00000000  1.0
  C0+  C21  1  0.25000000  0.71000000  0.50000000  1.0
  C0+  C22  1  0.75000000  0.79000000  0.50000000  1.0
  C0+  C23  1  0.25000000  0.29000000  0.00000000  1.0
  C0+  C24  1  0.00000000  0.25000000  0.46000000  1.0
  C0+  C25  1  0.50000000  0.75000000  0.96000000  1.0
  C0+  C26  1  0.00000000  0.75000000  0.04000000  1.0
  C0+  C27  1  0.50000000  0.25000000  0.54000000  1.0
  C0+  C28  1  0.00000000  0.75000000  0.21000000  1.0
  C0+  C29  1  0.50000000  0.25000000  0.71000000  1.0
  C0+  C30  1  0.50000000  0.75000000  0.79000000  1.0
  C0+  C31  1  0.00000000  0.25000000  0.29000000  1.0
  C0+  C32  1  0.46000000  0.00000000  0.25000000  1.0
  C0+  C33  1  0.96000000  0.50000000  0.75000000  1.0
  C0+  C34  1  0.04000000  0.00000000  0.75000000  1.0
  C0+  C35  1  0.54000000  0.50000000  0.25000000  1.0
  C0+  C36  1  0.21000000  0.00000000  0.75000000  1.0
  C0+  C37  1  0.71000000  0.50000000  0.25000000  1.0
  C0+  C38  1  0.79000000  0.50000000  0.75000000  1.0
  C0+  C39  1  0.29000000  0.00000000  0.25000000  1.0
