# generated using pymatgen
data_LuC2
_symmetry_space_group_name_H-M   'P 1'
_cell_length_a   3.56300000
_cell_length_b   3.56300000
_cell_length_c   5.96400000
_cell_angle_alpha   90.00000000
_cell_angle_beta   90.00000000
_cell_angle_gamma   90.00000000
_symmetry_Int_Tables_number   1
_chemical_formula_structural   LuC2
_chemical_formula_sum   'Lu2 C4'
_cell_volume   75.71279512
_cell_formula_units_Z   2
loop_
 _symmetry_equiv_pos_site_id
 _symmetry_equiv_pos_as_xyz
  1  'x, y, z'
loop_
 _atom_type_symbol
 _atom_type_oxidation_number
  Lu3+  3.0
  C1.5-  -1.5
loop_
 _atom_site_type_symbol
 _atom_site_label
 _atom_site_symmetry_multiplicity
 _atom_site_fract_x
 _atom_site_fract_y
 _atom_site_fract_z
 _atom_site_occupancy
  Lu3+  Lu0  1  0.00000000  0.00000000  0.00000000  1.0
  Lu3+  Lu1  1  0.50000000  0.50000000  0.50000000  1.0
  C1.5-  C2  1  0.00000000  0.00000000  0.60700000  1.0
  C1.5-  C3  1  0.00000000  0.00000000  0.39300000  1.0
  C1.5-  C4  1  0.50000000  0.50000000  0.10700000  1.0
  C1.5-  C5  1  0.50000000  0.50000000  0.89300000  1.0
