# generated using pymatgen
data_YC2
_symmetry_space_group_name_H-M   'P 1'
_cell_length_a   3.66400000
_cell_length_b   3.66400000
_cell_length_c   6.16900000
_cell_angle_alpha   90.00000000
_cell_angle_beta   90.00000000
_cell_angle_gamma   90.00000000
_symmetry_Int_Tables_number   1
_chemical_formula_structural   YC2
_chemical_formula_sum   'Y2 C4'
_cell_volume   82.81818342
_cell_formula_units_Z   2
loop_
 _symmetry_equiv_pos_site_id
 _symmetry_equiv_pos_as_xyz
  1  'x, y, z'
loop_
 _atom_type_symbol
 _atom_type_oxidation_number
  Y3+  3.0
  C1.5-  -1.5
loop_
 _atom_site_type_symbol
 _atom_site_label
 _atom_site_symmetry_multiplicity
 _atom_site_fract_x
 _atom_site_fract_y
 _atom_site_fract_z
 _atom_site_occupancy
  Y3+  Y0  1  0.00000000  0.00000000  0.00000000  1.0
  Y3+  Y1  1  0.50000000  0.50000000  0.50000000  1.0
  C1.5-  C2  1  0.00000000  0.00000000  0.60500000  1.0
  C1.5-  C3  1  0.00000000  0.00000000  0.39500000  1.0
  C1.5-  C4  1  0.50000000  0.50000000  0.10500000  1.0
  C1.5-  C5  1  0.50000000  0.50000000  0.89500000  1.0
