# generated using pymatgen
data_Ca3Co4Sn13
_symmetry_space_group_name_H-M   'P 1'
_cell_length_a   9.58400000
_cell_length_b   9.58400000
_cell_length_c   9.58400000
_cell_angle_alpha   90.00000000
_cell_angle_beta   90.00000000
_cell_angle_gamma   90.00000000
_symmetry_Int_Tables_number   1
_chemical_formula_structural   Ca3Co4Sn13
_chemical_formula_sum   'Ca6 Co8 Sn26'
_cell_volume   880.31968870
_cell_formula_units_Z   2
loop_
 _symmetry_equiv_pos_site_id
 _symmetry_equiv_pos_as_xyz
  1  'x, y, z'
loop_
 _atom_type_symbol
 _atom_type_oxidation_number
  Ca0+  0.0
  Co0+  0.0
  Sn0+  0.0
loop_
 _atom_site_type_symbol
 _atom_site_label
 _atom_site_symmetry_multiplicity
 _atom_site_fract_x
 _atom_site_fract_y
 _atom_site_fract_z
 _atom_site_occupancy
  Ca0+  Ca0  1  0.50000000  0.00000000  0.75000000  1.0
  Ca0+  Ca1  1  0.00000000  0.25000000  0.50000000  1.0
  Ca0+  Ca2  1  0.75000000  0.50000000  0.00000000  1.0
  Ca0+  Ca3  1  0.50000000  0.00000000  0.25000000  1.0
  Ca0+  Ca4  1  0.00000000  0.75000000  0.50000000  1.0
  Ca0+  Ca5  1  0.25000000  0.50000000  0.00000000  1.0
  Co0+  Co6  1  0.75000000  0.25000000  0.75000000  1.0
  Co0+  Co7  1  0.25000000  0.75000000  0.25000000  1.0
  Co0+  Co8  1  0.75000000  0.75000000  0.25000000  1.0
  Co0+  Co9  1  0.25000000  0.25000000  0.75000000  1.0
  Co0+  Co10  1  0.25000000  0.75000000  0.75000000  1.0
  Co0+  Co11  1  0.75000000  0.25000000  0.25000000  1.0
  Co0+  Co12  1  0.25000000  0.25000000  0.25000000  1.0
  Co0+  Co13  1  0.75000000  0.75000000  0.75000000  1.0
  Sn0+  Sn14  1  0.50000000  0.50000000  0.50000000  1.0
  Sn0+  Sn15  1  0.00000000  0.00000000  0.00000000  1.0
  Sn0+  Sn16  1  0.65400000  0.19600000  0.50000000  1.0
  Sn0+  Sn17  1  0.80400000  0.50000000  0.65400000  1.0
  Sn0+  Sn18  1  0.50000000  0.34600000  0.80400000  1.0
  Sn0+  Sn19  1  0.34600000  0.80400000  0.50000000  1.0
  Sn0+  Sn20  1  0.19600000  0.50000000  0.34600000  1.0
  Sn0+  Sn21  1  0.50000000  0.65400000  0.19600000  1.0
  Sn0+  Sn22  1  0.65400000  0.80400000  0.50000000  1.0
  Sn0+  Sn23  1  0.80400000  0.50000000  0.34600000  1.0
  Sn0+  Sn24  1  0.34600000  0.19600000  0.50000000  1.0
  Sn0+  Sn25  1  0.19600000  0.50000000  0.65400000  1.0
  Sn0+  Sn26  1  0.50000000  0.65400000  0.80400000  1.0
  Sn0+  Sn27  1  0.50000000  0.34600000  0.19600000  1.0
  Sn0+  Sn28  1  0.15400000  0.00000000  0.69600000  1.0
  Sn0+  Sn29  1  0.30400000  0.15400000  0.00000000  1.0
  Sn0+  Sn30  1  0.00000000  0.30400000  0.84600000  1.0
  Sn0+  Sn31  1  0.84600000  0.00000000  0.30400000  1.0
  Sn0+  Sn32  1  0.69600000  0.84600000  0.00000000  1.0
  Sn0+  Sn33  1  0.00000000  0.69600000  0.15400000  1.0
  Sn0+  Sn34  1  0.15400000  0.00000000  0.30400000  1.0
  Sn0+  Sn35  1  0.30400000  0.84600000  0.00000000  1.0
  Sn0+  Sn36  1  0.84600000  0.00000000  0.69600000  1.0
  Sn0+  Sn37  1  0.69600000  0.15400000  0.00000000  1.0
  Sn0+  Sn38  1  0.00000000  0.30400000  0.15400000  1.0
  Sn0+  Sn39  1  0.00000000  0.69600000  0.84600000  1.0
