# generated using pymatgen
data_Cd(Mo3S4)2
_symmetry_space_group_name_H-M   'P 1'
_cell_length_a   9.42000000
_cell_length_b   9.42000000
_cell_length_c   10.75000000
_cell_angle_alpha   90.00000000
_cell_angle_beta   90.00000000
_cell_angle_gamma   120.00000000
_symmetry_Int_Tables_number   1
_chemical_formula_structural   Cd(Mo3S4)2
_chemical_formula_sum   'Cd3 Mo18 S24'
_cell_volume   826.11574888
_cell_formula_units_Z   3
loop_
 _symmetry_equiv_pos_site_id
 _symmetry_equiv_pos_as_xyz
  1  'x, y, z'
loop_
 _atom_type_symbol
 _atom_type_oxidation_number
  Cd2+  2.0
  Mo2.333+  2.333
  S2-  -2.0
loop_
 _atom_site_type_symbol
 _atom_site_label
 _atom_site_symmetry_multiplicity
 _atom_site_fract_x
 _atom_site_fract_y
 _atom_site_fract_z
 _atom_site_occupancy
  Cd2+  Cd0  1  0.00000000  0.00000000  0.00000000  1.0
  Cd2+  Cd1  1  0.66666667  0.33333333  0.33333333  1.0
  Cd2+  Cd2  1  0.33333333  0.66666667  0.66666667  1.0
  Mo2.333+  Mo3  1  0.98200000  0.15000000  0.60500000  1.0
  Mo2.333+  Mo4  1  0.16800000  0.01800000  0.60500000  1.0
  Mo2.333+  Mo5  1  0.85000000  0.83200000  0.60500000  1.0
  Mo2.333+  Mo6  1  0.01800000  0.85000000  0.39500000  1.0
  Mo2.333+  Mo7  1  0.83200000  0.98200000  0.39500000  1.0
  Mo2.333+  Mo8  1  0.15000000  0.16800000  0.39500000  1.0
  Mo2.333+  Mo9  1  0.64866667  0.48333333  0.93833333  1.0
  Mo2.333+  Mo10  1  0.83466667  0.35133333  0.93833333  1.0
  Mo2.333+  Mo11  1  0.51666667  0.16533333  0.93833333  1.0
  Mo2.333+  Mo12  1  0.68466667  0.18333333  0.72833333  1.0
  Mo2.333+  Mo13  1  0.49866667  0.31533333  0.72833333  1.0
  Mo2.333+  Mo14  1  0.81666667  0.50133333  0.72833333  1.0
  Mo2.333+  Mo15  1  0.31533333  0.81666667  0.27166667  1.0
  Mo2.333+  Mo16  1  0.50133333  0.68466667  0.27166667  1.0
  Mo2.333+  Mo17  1  0.18333333  0.49866667  0.27166667  1.0
  Mo2.333+  Mo18  1  0.35133333  0.51666667  0.06166667  1.0
  Mo2.333+  Mo19  1  0.16533333  0.64866667  0.06166667  1.0
  Mo2.333+  Mo20  1  0.48333333  0.83466667  0.06166667  1.0
  S2-  S21  1  0.00000000  0.00000000  0.79200000  1.0
  S2-  S22  1  0.00000000  0.00000000  0.20800000  1.0
  S2-  S23  1  0.66666667  0.33333333  0.12533333  1.0
  S2-  S24  1  0.66666667  0.33333333  0.54133333  1.0
  S2-  S25  1  0.33333333  0.66666667  0.45866667  1.0
  S2-  S26  1  0.33333333  0.66666667  0.87466667  1.0
  S2-  S27  1  0.70100000  0.06200000  0.92800000  1.0
  S2-  S28  1  0.36100000  0.29900000  0.92800000  1.0
  S2-  S29  1  0.93800000  0.63900000  0.92800000  1.0
  S2-  S30  1  0.29900000  0.93800000  0.07200000  1.0
  S2-  S31  1  0.63900000  0.70100000  0.07200000  1.0
  S2-  S32  1  0.06200000  0.36100000  0.07200000  1.0
  S2-  S33  1  0.36766667  0.39533333  0.26133333  1.0
  S2-  S34  1  0.02766667  0.63233333  0.26133333  1.0
  S2-  S35  1  0.60466667  0.97233333  0.26133333  1.0
  S2-  S36  1  0.96566667  0.27133333  0.40533333  1.0
  S2-  S37  1  0.30566667  0.03433333  0.40533333  1.0
  S2-  S38  1  0.72866667  0.69433333  0.40533333  1.0
  S2-  S39  1  0.03433333  0.72866667  0.59466667  1.0
  S2-  S40  1  0.69433333  0.96566667  0.59466667  1.0
  S2-  S41  1  0.27133333  0.30566667  0.59466667  1.0
  S2-  S42  1  0.63233333  0.60466667  0.73866667  1.0
  S2-  S43  1  0.97233333  0.36766667  0.73866667  1.0
  S2-  S44  1  0.39533333  0.02766667  0.73866667  1.0
