# generated using pymatgen
data_Sc5(Co2Si5)2
_symmetry_space_group_name_H-M   'P 1'
_cell_length_a   11.85000000
_cell_length_b   11.85000000
_cell_length_c   3.94900000
_cell_angle_alpha   90.00000000
_cell_angle_beta   90.00000000
_cell_angle_gamma   90.00000000
_symmetry_Int_Tables_number   1
_chemical_formula_structural   Sc5(Co2Si5)2
_chemical_formula_sum   'Sc10 Co8 Si20'
_cell_volume   554.52845250
_cell_formula_units_Z   2
loop_
 _symmetry_equiv_pos_site_id
 _symmetry_equiv_pos_as_xyz
  1  'x, y, z'
loop_
 _atom_type_symbol
 _atom_type_oxidation_number
  Sc0+  0.0
  Co0+  0.0
  Si0+  0.0
loop_
 _atom_site_type_symbol
 _atom_site_label
 _atom_site_symmetry_multiplicity
 _atom_site_fract_x
 _atom_site_fract_y
 _atom_site_fract_z
 _atom_site_occupancy
  Sc0+  Sc0  1  0.50000000  0.50000000  0.00000000  1.0
  Sc0+  Sc1  1  0.00000000  0.00000000  0.00000000  1.0
  Sc0+  Sc2  1  0.17600000  0.67600000  0.50000000  1.0
  Sc0+  Sc3  1  0.82400000  0.32400000  0.50000000  1.0
  Sc0+  Sc4  1  0.32400000  0.17600000  0.50000000  1.0
  Sc0+  Sc5  1  0.67600000  0.82400000  0.50000000  1.0
  Sc0+  Sc6  1  0.38800000  0.88800000  0.50000000  1.0
  Sc0+  Sc7  1  0.61200000  0.11200000  0.50000000  1.0
  Sc0+  Sc8  1  0.11200000  0.38800000  0.50000000  1.0
  Sc0+  Sc9  1  0.88800000  0.61200000  0.50000000  1.0
  Co0+  Co10  1  0.52400000  0.74600000  0.00000000  1.0
  Co0+  Co11  1  0.47600000  0.25400000  0.00000000  1.0
  Co0+  Co12  1  0.97600000  0.24600000  0.00000000  1.0
  Co0+  Co13  1  0.02400000  0.75400000  0.00000000  1.0
  Co0+  Co14  1  0.74600000  0.47600000  0.00000000  1.0
  Co0+  Co15  1  0.25400000  0.52400000  0.00000000  1.0
  Co0+  Co16  1  0.24600000  0.02400000  0.00000000  1.0
  Co0+  Co17  1  0.75400000  0.97600000  0.00000000  1.0
  Si0+  Si18  1  0.06800000  0.56800000  0.00000000  1.0
  Si0+  Si19  1  0.93200000  0.43200000  0.00000000  1.0
  Si0+  Si20  1  0.43200000  0.06800000  0.00000000  1.0
  Si0+  Si21  1  0.56800000  0.93200000  0.00000000  1.0
  Si0+  Si22  1  0.69800000  0.65800000  0.00000000  1.0
  Si0+  Si23  1  0.30200000  0.34200000  0.00000000  1.0
  Si0+  Si24  1  0.80200000  0.15800000  0.00000000  1.0
  Si0+  Si25  1  0.19800000  0.84200000  0.00000000  1.0
  Si0+  Si26  1  0.65800000  0.30200000  0.00000000  1.0
  Si0+  Si27  1  0.34200000  0.69800000  0.00000000  1.0
  Si0+  Si28  1  0.15800000  0.19800000  0.00000000  1.0
  Si0+  Si29  1  0.84200000  0.80200000  0.00000000  1.0
  Si0+  Si30  1  0.50300000  0.66400000  0.50000000  1.0
  Si0+  Si31  1  0.49700000  0.33600000  0.50000000  1.0
  Si0+  Si32  1  0.99700000  0.16400000  0.50000000  1.0
  Si0+  Si33  1  0.00300000  0.83600000  0.50000000  1.0
  Si0+  Si34  1  0.66400000  0.49700000  0.50000000  1.0
  Si0+  Si35  1  0.33600000  0.50300000  0.50000000  1.0
  Si0+  Si36  1  0.16400000  0.00300000  0.50000000  1.0
  Si0+  Si37  1  0.83600000  0.99700000  0.50000000  1.0
