# generated using pymatgen
data_Ta2Co
_symmetry_space_group_name_H-M   'P 1'
_cell_length_a   6.12800000
_cell_length_b   6.12800000
_cell_length_c   4.93600000
_cell_angle_alpha   90.00000000
_cell_angle_beta   90.00000000
_cell_angle_gamma   90.00000000
_symmetry_Int_Tables_number   1
_chemical_formula_structural   Ta2Co
_chemical_formula_sum   'Ta8 Co4'
_cell_volume   185.35856742
_cell_formula_units_Z   4
loop_
 _symmetry_equiv_pos_site_id
 _symmetry_equiv_pos_as_xyz
  1  'x, y, z'
loop_
 _atom_type_symbol
 _atom_type_oxidation_number
  Ta0+  0.0
  Co0+  0.0
loop_
 _atom_site_type_symbol
 _atom_site_label
 _atom_site_symmetry_multiplicity
 _atom_site_fract_x
 _atom_site_fract_y
 _atom_site_fract_z
 _atom_site_occupancy
  Ta0+  Ta0  1  0.66000000  0.16000000  0.50000000  1.0
  Ta0+  Ta1  1  0.34000000  0.84000000  0.50000000  1.0
  Ta0+  Ta2  1  0.34000000  0.16000000  0.00000000  1.0
  Ta0+  Ta3  1  0.66000000  0.84000000  0.00000000  1.0
  Ta0+  Ta4  1  0.16000000  0.34000000  0.50000000  1.0
  Ta0+  Ta5  1  0.84000000  0.66000000  0.50000000  1.0
  Ta0+  Ta6  1  0.16000000  0.66000000  0.00000000  1.0
  Ta0+  Ta7  1  0.84000000  0.34000000  0.00000000  1.0
  Co0+  Co8  1  0.00000000  0.00000000  0.25000000  1.0
  Co0+  Co9  1  0.00000000  0.00000000  0.75000000  1.0
  Co0+  Co10  1  0.50000000  0.50000000  0.75000000  1.0
  Co0+  Co11  1  0.50000000  0.50000000  0.25000000  1.0
