# generated using pymatgen
data_Ti2Co
_symmetry_space_group_name_H-M   'P 1'
_cell_length_a   11.29000000
_cell_length_b   11.29000000
_cell_length_c   11.29000000
_cell_angle_alpha   90.00000000
_cell_angle_beta   90.00000000
_cell_angle_gamma   90.00000000
_symmetry_Int_Tables_number   1
_chemical_formula_structural   Ti2Co
_chemical_formula_sum   'Ti64 Co32'
_cell_volume   1439.06968900
_cell_formula_units_Z   32
loop_
 _symmetry_equiv_pos_site_id
 _symmetry_equiv_pos_as_xyz
  1  'x, y, z'
loop_
 _atom_type_symbol
 _atom_type_oxidation_number
  Ti0+  0.0
  Co0+  0.0
loop_
 _atom_site_type_symbol
 _atom_site_label
 _atom_site_symmetry_multiplicity
 _atom_site_fract_x
 _atom_site_fract_y
 _atom_site_fract_z
 _atom_site_occupancy
  Ti0+  Ti0  1  0.00000000  0.75000000  0.75000000  1.0
  Ti0+  Ti1  1  0.75000000  0.00000000  0.75000000  1.0
  Ti0+  Ti2  1  0.75000000  0.75000000  0.00000000  1.0
  Ti0+  Ti3  1  0.00000000  0.00000000  0.00000000  1.0
  Ti0+  Ti4  1  0.00000000  0.25000000  0.25000000  1.0
  Ti0+  Ti5  1  0.25000000  0.00000000  0.25000000  1.0
  Ti0+  Ti6  1  0.25000000  0.25000000  0.00000000  1.0
  Ti0+  Ti7  1  0.75000000  0.50000000  0.25000000  1.0
  Ti0+  Ti8  1  0.75000000  0.25000000  0.50000000  1.0
  Ti0+  Ti9  1  0.00000000  0.50000000  0.50000000  1.0
  Ti0+  Ti10  1  0.25000000  0.50000000  0.75000000  1.0
  Ti0+  Ti11  1  0.25000000  0.75000000  0.50000000  1.0
  Ti0+  Ti12  1  0.50000000  0.75000000  0.25000000  1.0
  Ti0+  Ti13  1  0.50000000  0.00000000  0.50000000  1.0
  Ti0+  Ti14  1  0.50000000  0.25000000  0.75000000  1.0
  Ti0+  Ti15  1  0.50000000  0.50000000  0.00000000  1.0
  Ti0+  Ti16  1  0.87500000  0.87500000  0.18600000  1.0
  Ti0+  Ti17  1  0.87500000  0.87500000  0.56400000  1.0
  Ti0+  Ti18  1  0.87500000  0.18600000  0.87500000  1.0
  Ti0+  Ti19  1  0.87500000  0.56400000  0.87500000  1.0
  Ti0+  Ti20  1  0.18600000  0.87500000  0.87500000  1.0
  Ti0+  Ti21  1  0.56400000  0.87500000  0.87500000  1.0
  Ti0+  Ti22  1  0.12500000  0.12500000  0.81400000  1.0
  Ti0+  Ti23  1  0.12500000  0.12500000  0.43600000  1.0
  Ti0+  Ti24  1  0.12500000  0.81400000  0.12500000  1.0
  Ti0+  Ti25  1  0.12500000  0.43600000  0.12500000  1.0
  Ti0+  Ti26  1  0.81400000  0.12500000  0.12500000  1.0
  Ti0+  Ti27  1  0.43600000  0.12500000  0.12500000  1.0
  Ti0+  Ti28  1  0.87500000  0.37500000  0.68600000  1.0
  Ti0+  Ti29  1  0.87500000  0.37500000  0.06400000  1.0
  Ti0+  Ti30  1  0.87500000  0.68600000  0.37500000  1.0
  Ti0+  Ti31  1  0.87500000  0.06400000  0.37500000  1.0
  Ti0+  Ti32  1  0.18600000  0.37500000  0.37500000  1.0
  Ti0+  Ti33  1  0.56400000  0.37500000  0.37500000  1.0
  Ti0+  Ti34  1  0.12500000  0.62500000  0.31400000  1.0
  Ti0+  Ti35  1  0.12500000  0.62500000  0.93600000  1.0
  Ti0+  Ti36  1  0.12500000  0.31400000  0.62500000  1.0
  Ti0+  Ti37  1  0.12500000  0.93600000  0.62500000  1.0
  Ti0+  Ti38  1  0.81400000  0.62500000  0.62500000  1.0
  Ti0+  Ti39  1  0.43600000  0.62500000  0.62500000  1.0
  Ti0+  Ti40  1  0.37500000  0.87500000  0.68600000  1.0
  Ti0+  Ti41  1  0.37500000  0.87500000  0.06400000  1.0
  Ti0+  Ti42  1  0.37500000  0.18600000  0.37500000  1.0
  Ti0+  Ti43  1  0.37500000  0.56400000  0.37500000  1.0
  Ti0+  Ti44  1  0.68600000  0.87500000  0.37500000  1.0
  Ti0+  Ti45  1  0.06400000  0.87500000  0.37500000  1.0
  Ti0+  Ti46  1  0.62500000  0.12500000  0.31400000  1.0
  Ti0+  Ti47  1  0.62500000  0.12500000  0.93600000  1.0
  Ti0+  Ti48  1  0.62500000  0.81400000  0.62500000  1.0
  Ti0+  Ti49  1  0.62500000  0.43600000  0.62500000  1.0
  Ti0+  Ti50  1  0.31400000  0.12500000  0.62500000  1.0
  Ti0+  Ti51  1  0.93600000  0.12500000  0.62500000  1.0
  Ti0+  Ti52  1  0.37500000  0.37500000  0.18600000  1.0
  Ti0+  Ti53  1  0.37500000  0.37500000  0.56400000  1.0
  Ti0+  Ti54  1  0.37500000  0.68600000  0.87500000  1.0
  Ti0+  Ti55  1  0.37500000  0.06400000  0.87500000  1.0
  Ti0+  Ti56  1  0.68600000  0.37500000  0.87500000  1.0
  Ti0+  Ti57  1  0.06400000  0.37500000  0.87500000  1.0
  Ti0+  Ti58  1  0.62500000  0.62500000  0.81400000  1.0
  Ti0+  Ti59  1  0.62500000  0.62500000  0.43600000  1.0
  Ti0+  Ti60  1  0.62500000  0.31400000  0.12500000  1.0
  Ti0+  Ti61  1  0.62500000  0.93600000  0.12500000  1.0
  Ti0+  Ti62  1  0.31400000  0.62500000  0.12500000  1.0
  Ti0+  Ti63  1  0.93600000  0.62500000  0.12500000  1.0
  Co0+  Co64  1  0.78600000  0.96400000  0.96400000  1.0
  Co0+  Co65  1  0.96400000  0.78600000  0.96400000  1.0
  Co0+  Co66  1  0.96400000  0.96400000  0.78600000  1.0
  Co0+  Co67  1  0.78600000  0.78600000  0.78600000  1.0
  Co0+  Co68  1  0.21400000  0.03600000  0.03600000  1.0
  Co0+  Co69  1  0.03600000  0.21400000  0.03600000  1.0
  Co0+  Co70  1  0.03600000  0.03600000  0.21400000  1.0
  Co0+  Co71  1  0.21400000  0.21400000  0.21400000  1.0
  Co0+  Co72  1  0.78600000  0.46400000  0.46400000  1.0
  Co0+  Co73  1  0.96400000  0.28600000  0.46400000  1.0
  Co0+  Co74  1  0.96400000  0.46400000  0.28600000  1.0
  Co0+  Co75  1  0.78600000  0.28600000  0.28600000  1.0
  Co0+  Co76  1  0.21400000  0.53600000  0.53600000  1.0
  Co0+  Co77  1  0.03600000  0.71400000  0.53600000  1.0
  Co0+  Co78  1  0.03600000  0.53600000  0.71400000  1.0
  Co0+  Co79  1  0.21400000  0.71400000  0.71400000  1.0
  Co0+  Co80  1  0.28600000  0.96400000  0.46400000  1.0
  Co0+  Co81  1  0.46400000  0.78600000  0.46400000  1.0
  Co0+  Co82  1  0.46400000  0.96400000  0.28600000  1.0
  Co0+  Co83  1  0.28600000  0.78600000  0.28600000  1.0
  Co0+  Co84  1  0.71400000  0.03600000  0.53600000  1.0
  Co0+  Co85  1  0.53600000  0.21400000  0.53600000  1.0
  Co0+  Co86  1  0.53600000  0.03600000  0.71400000  1.0
  Co0+  Co87  1  0.71400000  0.21400000  0.71400000  1.0
  Co0+  Co88  1  0.28600000  0.46400000  0.96400000  1.0
  Co0+  Co89  1  0.46400000  0.28600000  0.96400000  1.0
  Co0+  Co90  1  0.46400000  0.46400000  0.78600000  1.0
  Co0+  Co91  1  0.28600000  0.28600000  0.78600000  1.0
  Co0+  Co92  1  0.71400000  0.53600000  0.03600000  1.0
  Co0+  Co93  1  0.53600000  0.71400000  0.03600000  1.0
  Co0+  Co94  1  0.53600000  0.53600000  0.21400000  1.0
  Co0+  Co95  1  0.71400000  0.71400000  0.21400000  1.0
