# generated using pymatgen
data_Cu(Mo3Se4)2
_symmetry_space_group_name_H-M   'P 1'
_cell_length_a   9.77200000
_cell_length_b   9.77200000
_cell_length_c   10.83000000
_cell_angle_alpha   90.00000000
_cell_angle_beta   90.00000000
_cell_angle_gamma   120.00000000
_symmetry_Int_Tables_number   1
_chemical_formula_structural   Cu(Mo3Se4)2
_chemical_formula_sum   'Cu3 Mo18 Se24'
_cell_volume   895.62458174
_cell_formula_units_Z   3
loop_
 _symmetry_equiv_pos_site_id
 _symmetry_equiv_pos_as_xyz
  1  'x, y, z'
loop_
 _atom_type_symbol
 _atom_type_oxidation_number
  Cu+  1.0
  Mo2.5+  2.5
  Se2-  -2.0
loop_
 _atom_site_type_symbol
 _atom_site_label
 _atom_site_symmetry_multiplicity
 _atom_site_fract_x
 _atom_site_fract_y
 _atom_site_fract_z
 _atom_site_occupancy
  Cu+  Cu0  1  0.00000000  0.00000000  0.00000000  1.0
  Cu+  Cu1  1  0.66666667  0.33333333  0.33333333  1.0
  Cu+  Cu2  1  0.33333333  0.66666667  0.66666667  1.0
  Mo2.5+  Mo3  1  0.98300000  0.15700000  0.60000000  1.0
  Mo2.5+  Mo4  1  0.17400000  0.01700000  0.60000000  1.0
  Mo2.5+  Mo5  1  0.84300000  0.82600000  0.60000000  1.0
  Mo2.5+  Mo6  1  0.01700000  0.84300000  0.40000000  1.0
  Mo2.5+  Mo7  1  0.82600000  0.98300000  0.40000000  1.0
  Mo2.5+  Mo8  1  0.15700000  0.17400000  0.40000000  1.0
  Mo2.5+  Mo9  1  0.64966667  0.49033333  0.93333333  1.0
  Mo2.5+  Mo10  1  0.84066667  0.35033333  0.93333333  1.0
  Mo2.5+  Mo11  1  0.50966667  0.15933333  0.93333333  1.0
  Mo2.5+  Mo12  1  0.68366667  0.17633333  0.73333333  1.0
  Mo2.5+  Mo13  1  0.49266667  0.31633333  0.73333333  1.0
  Mo2.5+  Mo14  1  0.82366667  0.50733333  0.73333333  1.0
  Mo2.5+  Mo15  1  0.31633333  0.82366667  0.26666667  1.0
  Mo2.5+  Mo16  1  0.50733333  0.68366667  0.26666667  1.0
  Mo2.5+  Mo17  1  0.17633333  0.49266667  0.26666667  1.0
  Mo2.5+  Mo18  1  0.35033333  0.50966667  0.06666667  1.0
  Mo2.5+  Mo19  1  0.15933333  0.64966667  0.06666667  1.0
  Mo2.5+  Mo20  1  0.49033333  0.84066667  0.06666667  1.0
  Se2-  Se21  1  0.00000000  0.00000000  0.76800000  1.0
  Se2-  Se22  1  0.00000000  0.00000000  0.23200000  1.0
  Se2-  Se23  1  0.66666667  0.33333333  0.10133333  1.0
  Se2-  Se24  1  0.66666667  0.33333333  0.56533333  1.0
  Se2-  Se25  1  0.33333333  0.66666667  0.43466667  1.0
  Se2-  Se26  1  0.33333333  0.66666667  0.89866667  1.0
  Se2-  Se27  1  0.70200000  0.04400000  0.91700000  1.0
  Se2-  Se28  1  0.34200000  0.29800000  0.91700000  1.0
  Se2-  Se29  1  0.95600000  0.65800000  0.91700000  1.0
  Se2-  Se30  1  0.29800000  0.95600000  0.08300000  1.0
  Se2-  Se31  1  0.65800000  0.70200000  0.08300000  1.0
  Se2-  Se32  1  0.04400000  0.34200000  0.08300000  1.0
  Se2-  Se33  1  0.36866667  0.37733333  0.25033333  1.0
  Se2-  Se34  1  0.00866667  0.63133333  0.25033333  1.0
  Se2-  Se35  1  0.62266667  0.99133333  0.25033333  1.0
  Se2-  Se36  1  0.96466667  0.28933333  0.41633333  1.0
  Se2-  Se37  1  0.32466667  0.03533333  0.41633333  1.0
  Se2-  Se38  1  0.71066667  0.67533333  0.41633333  1.0
  Se2-  Se39  1  0.03533333  0.71066667  0.58366667  1.0
  Se2-  Se40  1  0.67533333  0.96466667  0.58366667  1.0
  Se2-  Se41  1  0.28933333  0.32466667  0.58366667  1.0
  Se2-  Se42  1  0.63133333  0.62266667  0.74966667  1.0
  Se2-  Se43  1  0.99133333  0.36866667  0.74966667  1.0
  Se2-  Se44  1  0.37733333  0.00866667  0.74966667  1.0
