# generated using pymatgen
data_Cu(RhS2)2
_symmetry_space_group_name_H-M   'P 1'
_cell_length_a   9.79000000
_cell_length_b   9.79000000
_cell_length_c   9.79000000
_cell_angle_alpha   90.00000000
_cell_angle_beta   90.00000000
_cell_angle_gamma   90.00000000
_symmetry_Int_Tables_number   1
_chemical_formula_structural   Cu(RhS2)2
_chemical_formula_sum   'Cu8 Rh16 S32'
_cell_volume   938.31373900
_cell_formula_units_Z   8
loop_
 _symmetry_equiv_pos_site_id
 _symmetry_equiv_pos_as_xyz
  1  'x, y, z'
loop_
 _atom_type_symbol
 _atom_type_oxidation_number
  Cu2+  2.0
  Rh3+  3.0
  S2-  -2.0
loop_
 _atom_site_type_symbol
 _atom_site_label
 _atom_site_symmetry_multiplicity
 _atom_site_fract_x
 _atom_site_fract_y
 _atom_site_fract_z
 _atom_site_occupancy
  Cu2+  Cu0  1  0.62500000  0.12500000  0.12500000  1.0
  Cu2+  Cu1  1  0.12500000  0.62500000  0.12500000  1.0
  Cu2+  Cu2  1  0.12500000  0.12500000  0.62500000  1.0
  Cu2+  Cu3  1  0.62500000  0.62500000  0.62500000  1.0
  Cu2+  Cu4  1  0.37500000  0.87500000  0.87500000  1.0
  Cu2+  Cu5  1  0.87500000  0.37500000  0.87500000  1.0
  Cu2+  Cu6  1  0.87500000  0.87500000  0.37500000  1.0
  Cu2+  Cu7  1  0.37500000  0.37500000  0.37500000  1.0
  Rh3+  Rh8  1  0.00000000  0.75000000  0.75000000  1.0
  Rh3+  Rh9  1  0.75000000  0.00000000  0.75000000  1.0
  Rh3+  Rh10  1  0.75000000  0.75000000  0.00000000  1.0
  Rh3+  Rh11  1  0.00000000  0.00000000  0.00000000  1.0
  Rh3+  Rh12  1  0.00000000  0.25000000  0.25000000  1.0
  Rh3+  Rh13  1  0.25000000  0.00000000  0.25000000  1.0
  Rh3+  Rh14  1  0.25000000  0.25000000  0.00000000  1.0
  Rh3+  Rh15  1  0.75000000  0.50000000  0.25000000  1.0
  Rh3+  Rh16  1  0.75000000  0.25000000  0.50000000  1.0
  Rh3+  Rh17  1  0.00000000  0.50000000  0.50000000  1.0
  Rh3+  Rh18  1  0.25000000  0.50000000  0.75000000  1.0
  Rh3+  Rh19  1  0.25000000  0.75000000  0.50000000  1.0
  Rh3+  Rh20  1  0.50000000  0.75000000  0.25000000  1.0
  Rh3+  Rh21  1  0.50000000  0.00000000  0.50000000  1.0
  Rh3+  Rh22  1  0.50000000  0.25000000  0.75000000  1.0
  Rh3+  Rh23  1  0.50000000  0.50000000  0.00000000  1.0
  S2-  S24  1  0.75800000  0.99200000  0.99200000  1.0
  S2-  S25  1  0.99200000  0.75800000  0.99200000  1.0
  S2-  S26  1  0.99200000  0.99200000  0.75800000  1.0
  S2-  S27  1  0.75800000  0.75800000  0.75800000  1.0
  S2-  S28  1  0.24200000  0.00800000  0.00800000  1.0
  S2-  S29  1  0.00800000  0.24200000  0.00800000  1.0
  S2-  S30  1  0.00800000  0.00800000  0.24200000  1.0
  S2-  S31  1  0.24200000  0.24200000  0.24200000  1.0
  S2-  S32  1  0.75800000  0.49200000  0.49200000  1.0
  S2-  S33  1  0.99200000  0.25800000  0.49200000  1.0
  S2-  S34  1  0.99200000  0.49200000  0.25800000  1.0
  S2-  S35  1  0.75800000  0.25800000  0.25800000  1.0
  S2-  S36  1  0.24200000  0.50800000  0.50800000  1.0
  S2-  S37  1  0.00800000  0.74200000  0.50800000  1.0
  S2-  S38  1  0.00800000  0.50800000  0.74200000  1.0
  S2-  S39  1  0.24200000  0.74200000  0.74200000  1.0
  S2-  S40  1  0.25800000  0.99200000  0.49200000  1.0
  S2-  S41  1  0.49200000  0.75800000  0.49200000  1.0
  S2-  S42  1  0.49200000  0.99200000  0.25800000  1.0
  S2-  S43  1  0.25800000  0.75800000  0.25800000  1.0
  S2-  S44  1  0.74200000  0.00800000  0.50800000  1.0
  S2-  S45  1  0.50800000  0.24200000  0.50800000  1.0
  S2-  S46  1  0.50800000  0.00800000  0.74200000  1.0
  S2-  S47  1  0.74200000  0.24200000  0.74200000  1.0
  S2-  S48  1  0.25800000  0.49200000  0.99200000  1.0
  S2-  S49  1  0.49200000  0.25800000  0.99200000  1.0
  S2-  S50  1  0.49200000  0.49200000  0.75800000  1.0
  S2-  S51  1  0.25800000  0.25800000  0.75800000  1.0
  S2-  S52  1  0.74200000  0.50800000  0.00800000  1.0
  S2-  S53  1  0.50800000  0.74200000  0.00800000  1.0
  S2-  S54  1  0.50800000  0.50800000  0.24200000  1.0
  S2-  S55  1  0.74200000  0.74200000  0.24200000  1.0
