# generated using pymatgen
data_CuTe2
_symmetry_space_group_name_H-M   'P 1'
_cell_length_a   6.60520000
_cell_length_b   6.60520000
_cell_length_c   6.60520000
_cell_angle_alpha   90.00000000
_cell_angle_beta   90.00000000
_cell_angle_gamma   90.00000000
_symmetry_Int_Tables_number   1
_chemical_formula_structural   CuTe2
_chemical_formula_sum   'Cu4 Te8'
_cell_volume   288.17607153
_cell_formula_units_Z   4
loop_
 _symmetry_equiv_pos_site_id
 _symmetry_equiv_pos_as_xyz
  1  'x, y, z'
loop_
 _atom_type_symbol
 _atom_type_oxidation_number
  Cu2+  2.0
  Te-  -1.0
loop_
 _atom_site_type_symbol
 _atom_site_label
 _atom_site_symmetry_multiplicity
 _atom_site_fract_x
 _atom_site_fract_y
 _atom_site_fract_z
 _atom_site_occupancy
  Cu2+  Cu0  1  0.50000000  0.50000000  0.00000000  1.0
  Cu2+  Cu1  1  0.50000000  0.00000000  0.50000000  1.0
  Cu2+  Cu2  1  0.00000000  0.50000000  0.50000000  1.0
  Cu2+  Cu3  1  0.00000000  0.00000000  0.00000000  1.0
  Te-  Te4  1  0.12300000  0.87700000  0.37700000  1.0
  Te-  Te5  1  0.87700000  0.37700000  0.12300000  1.0
  Te-  Te6  1  0.37700000  0.12300000  0.87700000  1.0
  Te-  Te7  1  0.62300000  0.62300000  0.62300000  1.0
  Te-  Te8  1  0.87700000  0.12300000  0.62300000  1.0
  Te-  Te9  1  0.12300000  0.62300000  0.87700000  1.0
  Te-  Te10  1  0.62300000  0.87700000  0.12300000  1.0
  Te-  Te11  1  0.37700000  0.37700000  0.37700000  1.0
