# generated using pymatgen
data_Nb5Ga3
_symmetry_space_group_name_H-M   'P 1'
_cell_length_a   10.28000000
_cell_length_b   10.28000000
_cell_length_c   5.06000000
_cell_angle_alpha   90.00000000
_cell_angle_beta   90.00000000
_cell_angle_gamma   90.00000000
_symmetry_Int_Tables_number   1
_chemical_formula_structural   Nb5Ga3
_chemical_formula_sum   'Nb20 Ga12'
_cell_volume   534.73270400
_cell_formula_units_Z   4
loop_
 _symmetry_equiv_pos_site_id
 _symmetry_equiv_pos_as_xyz
  1  'x, y, z'
loop_
 _atom_type_symbol
 _atom_type_oxidation_number
  Nb0+  0.0
  Ga0+  0.0
loop_
 _atom_site_type_symbol
 _atom_site_label
 _atom_site_symmetry_multiplicity
 _atom_site_fract_x
 _atom_site_fract_y
 _atom_site_fract_z
 _atom_site_occupancy
  Nb0+  Nb0  1  0.22200000  0.07600000  0.50000000  1.0
  Nb0+  Nb1  1  0.77800000  0.92400000  0.50000000  1.0
  Nb0+  Nb2  1  0.77800000  0.07600000  0.00000000  1.0
  Nb0+  Nb3  1  0.22200000  0.92400000  0.00000000  1.0
  Nb0+  Nb4  1  0.07600000  0.77800000  0.50000000  1.0
  Nb0+  Nb5  1  0.92400000  0.22200000  0.50000000  1.0
  Nb0+  Nb6  1  0.07600000  0.22200000  0.00000000  1.0
  Nb0+  Nb7  1  0.92400000  0.77800000  0.00000000  1.0
  Nb0+  Nb8  1  0.72200000  0.57600000  0.00000000  1.0
  Nb0+  Nb9  1  0.27800000  0.42400000  0.00000000  1.0
  Nb0+  Nb10  1  0.27800000  0.57600000  0.50000000  1.0
  Nb0+  Nb11  1  0.72200000  0.42400000  0.50000000  1.0
  Nb0+  Nb12  1  0.57600000  0.27800000  0.00000000  1.0
  Nb0+  Nb13  1  0.42400000  0.72200000  0.00000000  1.0
  Nb0+  Nb14  1  0.57600000  0.72200000  0.50000000  1.0
  Nb0+  Nb15  1  0.42400000  0.27800000  0.50000000  1.0
  Nb0+  Nb16  1  0.50000000  0.00000000  0.25000000  1.0
  Nb0+  Nb17  1  0.50000000  0.00000000  0.75000000  1.0
  Nb0+  Nb18  1  0.00000000  0.50000000  0.25000000  1.0
  Nb0+  Nb19  1  0.00000000  0.50000000  0.75000000  1.0
  Ga0+  Ga20  1  0.66500000  0.16500000  0.50000000  1.0
  Ga0+  Ga21  1  0.33500000  0.83500000  0.50000000  1.0
  Ga0+  Ga22  1  0.33500000  0.16500000  0.00000000  1.0
  Ga0+  Ga23  1  0.66500000  0.83500000  0.00000000  1.0
  Ga0+  Ga24  1  0.16500000  0.33500000  0.50000000  1.0
  Ga0+  Ga25  1  0.83500000  0.66500000  0.50000000  1.0
  Ga0+  Ga26  1  0.16500000  0.66500000  0.00000000  1.0
  Ga0+  Ga27  1  0.83500000  0.33500000  0.00000000  1.0
  Ga0+  Ga28  1  0.00000000  0.00000000  0.25000000  1.0
  Ga0+  Ga29  1  0.00000000  0.00000000  0.75000000  1.0
  Ga0+  Ga30  1  0.50000000  0.50000000  0.75000000  1.0
  Ga0+  Ga31  1  0.50000000  0.50000000  0.25000000  1.0
