# generated using pymatgen
data_GaPt
_symmetry_space_group_name_H-M   'P 1'
_cell_length_a   4.91000000
_cell_length_b   4.91000000
_cell_length_c   4.91000000
_cell_angle_alpha   90.00000000
_cell_angle_beta   90.00000000
_cell_angle_gamma   90.00000000
_symmetry_Int_Tables_number   1
_chemical_formula_structural   GaPt
_chemical_formula_sum   'Ga4 Pt4'
_cell_volume   118.37077100
_cell_formula_units_Z   4
loop_
 _symmetry_equiv_pos_site_id
 _symmetry_equiv_pos_as_xyz
  1  'x, y, z'
loop_
 _atom_type_symbol
 _atom_type_oxidation_number
  Ga0+  0.0
  Pt0+  0.0
loop_
 _atom_site_type_symbol
 _atom_site_label
 _atom_site_symmetry_multiplicity
 _atom_site_fract_x
 _atom_site_fract_y
 _atom_site_fract_z
 _atom_site_occupancy
  Ga0+  Ga0  1  0.65500000  0.15500000  0.34500000  1.0
  Ga0+  Ga1  1  0.15500000  0.34500000  0.65500000  1.0
  Ga0+  Ga2  1  0.34500000  0.65500000  0.15500000  1.0
  Ga0+  Ga3  1  0.84500000  0.84500000  0.84500000  1.0
  Pt0+  Pt4  1  0.36500000  0.86500000  0.63500000  1.0
  Pt0+  Pt5  1  0.86500000  0.63500000  0.36500000  1.0
  Pt0+  Pt6  1  0.63500000  0.36500000  0.86500000  1.0
  Pt0+  Pt7  1  0.13500000  0.13500000  0.13500000  1.0
