# generated using pymatgen
data_Ga7Pt3
_symmetry_space_group_name_H-M   'P 1'
_cell_length_a   8.79900000
_cell_length_b   8.79900000
_cell_length_c   8.79900000
_cell_angle_alpha   90.00000000
_cell_angle_beta   90.00000000
_cell_angle_gamma   90.00000000
_symmetry_Int_Tables_number   1
_chemical_formula_structural   Ga7Pt3
_chemical_formula_sum   'Ga28 Pt12'
_cell_volume   681.23970640
_cell_formula_units_Z   4
loop_
 _symmetry_equiv_pos_site_id
 _symmetry_equiv_pos_as_xyz
  1  'x, y, z'
loop_
 _atom_type_symbol
 _atom_type_oxidation_number
  Ga0+  0.0
  Pt0+  0.0
loop_
 _atom_site_type_symbol
 _atom_site_label
 _atom_site_symmetry_multiplicity
 _atom_site_fract_x
 _atom_site_fract_y
 _atom_site_fract_z
 _atom_site_occupancy
  Ga0+  Ga0  1  0.50000000  0.00000000  0.75000000  1.0
  Ga0+  Ga1  1  0.00000000  0.25000000  0.50000000  1.0
  Ga0+  Ga2  1  0.25000000  0.50000000  0.00000000  1.0
  Ga0+  Ga3  1  0.50000000  0.25000000  0.00000000  1.0
  Ga0+  Ga4  1  0.00000000  0.50000000  0.75000000  1.0
  Ga0+  Ga5  1  0.25000000  0.00000000  0.50000000  1.0
  Ga0+  Ga6  1  0.50000000  0.00000000  0.25000000  1.0
  Ga0+  Ga7  1  0.00000000  0.75000000  0.50000000  1.0
  Ga0+  Ga8  1  0.50000000  0.75000000  0.00000000  1.0
  Ga0+  Ga9  1  0.00000000  0.50000000  0.25000000  1.0
  Ga0+  Ga10  1  0.75000000  0.50000000  0.00000000  1.0
  Ga0+  Ga11  1  0.75000000  0.00000000  0.50000000  1.0
  Ga0+  Ga12  1  0.16100000  0.16100000  0.83900000  1.0
  Ga0+  Ga13  1  0.16100000  0.83900000  0.16100000  1.0
  Ga0+  Ga14  1  0.83900000  0.16100000  0.16100000  1.0
  Ga0+  Ga15  1  0.83900000  0.83900000  0.83900000  1.0
  Ga0+  Ga16  1  0.83900000  0.83900000  0.16100000  1.0
  Ga0+  Ga17  1  0.83900000  0.16100000  0.83900000  1.0
  Ga0+  Ga18  1  0.16100000  0.83900000  0.83900000  1.0
  Ga0+  Ga19  1  0.16100000  0.16100000  0.16100000  1.0
  Ga0+  Ga20  1  0.66100000  0.66100000  0.33900000  1.0
  Ga0+  Ga21  1  0.66100000  0.33900000  0.66100000  1.0
  Ga0+  Ga22  1  0.33900000  0.66100000  0.66100000  1.0
  Ga0+  Ga23  1  0.33900000  0.33900000  0.33900000  1.0
  Ga0+  Ga24  1  0.33900000  0.33900000  0.66100000  1.0
  Ga0+  Ga25  1  0.33900000  0.66100000  0.33900000  1.0
  Ga0+  Ga26  1  0.66100000  0.33900000  0.33900000  1.0
  Ga0+  Ga27  1  0.66100000  0.66100000  0.66100000  1.0
  Pt0+  Pt28  1  0.00000000  0.00000000  0.64900000  1.0
  Pt0+  Pt29  1  0.00000000  0.35100000  0.00000000  1.0
  Pt0+  Pt30  1  0.35100000  0.00000000  0.00000000  1.0
  Pt0+  Pt31  1  0.00000000  0.00000000  0.35100000  1.0
  Pt0+  Pt32  1  0.00000000  0.64900000  0.00000000  1.0
  Pt0+  Pt33  1  0.64900000  0.00000000  0.00000000  1.0
  Pt0+  Pt34  1  0.50000000  0.50000000  0.14900000  1.0
  Pt0+  Pt35  1  0.50000000  0.85100000  0.50000000  1.0
  Pt0+  Pt36  1  0.85100000  0.50000000  0.50000000  1.0
  Pt0+  Pt37  1  0.50000000  0.50000000  0.85100000  1.0
  Pt0+  Pt38  1  0.50000000  0.14900000  0.50000000  1.0
  Pt0+  Pt39  1  0.14900000  0.50000000  0.50000000  1.0
