# generated using pymatgen
data_Te
_symmetry_space_group_name_H-M   'P 1'
_cell_length_a   4.45700000
_cell_length_b   4.45700000
_cell_length_c   5.92900000
_cell_angle_alpha   90.00000000
_cell_angle_beta   90.00000000
_cell_angle_gamma   120.00000000
_symmetry_Int_Tables_number   1
_chemical_formula_structural   Te
_chemical_formula_sum   Te3
_cell_volume   101.99933732
_cell_formula_units_Z   3
loop_
 _symmetry_equiv_pos_site_id
 _symmetry_equiv_pos_as_xyz
  1  'x, y, z'
loop_
 _atom_type_symbol
 _atom_type_oxidation_number
  Te0+  0.0
loop_
 _atom_site_type_symbol
 _atom_site_label
 _atom_site_symmetry_multiplicity
 _atom_site_fract_x
 _atom_site_fract_y
 _atom_site_fract_z
 _atom_site_occupancy
  Te0+  Te0  1  0.26900000  0.00000000  0.33333333  1.0
  Te0+  Te1  1  0.73100000  0.73100000  0.00000000  1.0
  Te0+  Te2  1  0.00000000  0.26900000  0.66666667  1.0
