# generated using pymatgen
data_Ta4GaSe8
_symmetry_space_group_name_H-M   'P 1'
_cell_length_a   10.37000000
_cell_length_b   10.37000000
_cell_length_c   10.37000000
_cell_angle_alpha   90.00000000
_cell_angle_beta   90.00000000
_cell_angle_gamma   90.00000000
_symmetry_Int_Tables_number   1
_chemical_formula_structural   Ta4GaSe8
_chemical_formula_sum   'Ta16 Ga4 Se32'
_cell_volume   1115.15765300
_cell_formula_units_Z   4
loop_
 _symmetry_equiv_pos_site_id
 _symmetry_equiv_pos_as_xyz
  1  'x, y, z'
loop_
 _atom_type_symbol
 _atom_type_oxidation_number
  Ta3.25+  3.25
  Ga3+  3.0
  Se2-  -2.0
loop_
 _atom_site_type_symbol
 _atom_site_label
 _atom_site_symmetry_multiplicity
 _atom_site_fract_x
 _atom_site_fract_y
 _atom_site_fract_z
 _atom_site_occupancy
  Ta3.25+  Ta0  1  0.60200000  0.60200000  0.39800000  1.0
  Ta3.25+  Ta1  1  0.60200000  0.39800000  0.60200000  1.0
  Ta3.25+  Ta2  1  0.39800000  0.60200000  0.60200000  1.0
  Ta3.25+  Ta3  1  0.39800000  0.39800000  0.39800000  1.0
  Ta3.25+  Ta4  1  0.60200000  0.10200000  0.89800000  1.0
  Ta3.25+  Ta5  1  0.60200000  0.89800000  0.10200000  1.0
  Ta3.25+  Ta6  1  0.39800000  0.10200000  0.10200000  1.0
  Ta3.25+  Ta7  1  0.39800000  0.89800000  0.89800000  1.0
  Ta3.25+  Ta8  1  0.10200000  0.60200000  0.89800000  1.0
  Ta3.25+  Ta9  1  0.10200000  0.39800000  0.10200000  1.0
  Ta3.25+  Ta10  1  0.89800000  0.60200000  0.10200000  1.0
  Ta3.25+  Ta11  1  0.89800000  0.39800000  0.89800000  1.0
  Ta3.25+  Ta12  1  0.10200000  0.10200000  0.39800000  1.0
  Ta3.25+  Ta13  1  0.10200000  0.89800000  0.60200000  1.0
  Ta3.25+  Ta14  1  0.89800000  0.10200000  0.60200000  1.0
  Ta3.25+  Ta15  1  0.89800000  0.89800000  0.39800000  1.0
  Ga3+  Ga16  1  0.00000000  0.00000000  0.00000000  1.0
  Ga3+  Ga17  1  0.00000000  0.50000000  0.50000000  1.0
  Ga3+  Ga18  1  0.50000000  0.00000000  0.50000000  1.0
  Ga3+  Ga19  1  0.50000000  0.50000000  0.00000000  1.0
  Se2-  Se20  1  0.36400000  0.36400000  0.63600000  1.0
  Se2-  Se21  1  0.36400000  0.63600000  0.36400000  1.0
  Se2-  Se22  1  0.63600000  0.36400000  0.36400000  1.0
  Se2-  Se23  1  0.63600000  0.63600000  0.63600000  1.0
  Se2-  Se24  1  0.36400000  0.86400000  0.13600000  1.0
  Se2-  Se25  1  0.36400000  0.13600000  0.86400000  1.0
  Se2-  Se26  1  0.63600000  0.86400000  0.86400000  1.0
  Se2-  Se27  1  0.63600000  0.13600000  0.13600000  1.0
  Se2-  Se28  1  0.86400000  0.36400000  0.13600000  1.0
  Se2-  Se29  1  0.86400000  0.63600000  0.86400000  1.0
  Se2-  Se30  1  0.13600000  0.36400000  0.86400000  1.0
  Se2-  Se31  1  0.13600000  0.63600000  0.13600000  1.0
  Se2-  Se32  1  0.86400000  0.86400000  0.63600000  1.0
  Se2-  Se33  1  0.86400000  0.13600000  0.36400000  1.0
  Se2-  Se34  1  0.13600000  0.86400000  0.36400000  1.0
  Se2-  Se35  1  0.13600000  0.13600000  0.63600000  1.0
  Se2-  Se36  1  0.86500000  0.86500000  0.13500000  1.0
  Se2-  Se37  1  0.86500000  0.13500000  0.86500000  1.0
  Se2-  Se38  1  0.13500000  0.86500000  0.86500000  1.0
  Se2-  Se39  1  0.13500000  0.13500000  0.13500000  1.0
  Se2-  Se40  1  0.86500000  0.36500000  0.63500000  1.0
  Se2-  Se41  1  0.86500000  0.63500000  0.36500000  1.0
  Se2-  Se42  1  0.13500000  0.36500000  0.36500000  1.0
  Se2-  Se43  1  0.13500000  0.63500000  0.63500000  1.0
  Se2-  Se44  1  0.36500000  0.86500000  0.63500000  1.0
  Se2-  Se45  1  0.36500000  0.13500000  0.36500000  1.0
  Se2-  Se46  1  0.63500000  0.86500000  0.36500000  1.0
  Se2-  Se47  1  0.63500000  0.13500000  0.63500000  1.0
  Se2-  Se48  1  0.36500000  0.36500000  0.13500000  1.0
  Se2-  Se49  1  0.36500000  0.63500000  0.86500000  1.0
  Se2-  Se50  1  0.63500000  0.36500000  0.86500000  1.0
  Se2-  Se51  1  0.63500000  0.63500000  0.13500000  1.0
