# generated using pymatgen
data_V2Ga5
_symmetry_space_group_name_H-M   'P 1'
_cell_length_a   8.96500000
_cell_length_b   8.96500000
_cell_length_c   2.70000000
_cell_angle_alpha   90.00000000
_cell_angle_beta   90.00000000
_cell_angle_gamma   90.00000000
_symmetry_Int_Tables_number   1
_chemical_formula_structural   V2Ga5
_chemical_formula_sum   'V4 Ga10'
_cell_volume   217.00230750
_cell_formula_units_Z   2
loop_
 _symmetry_equiv_pos_site_id
 _symmetry_equiv_pos_as_xyz
  1  'x, y, z'
loop_
 _atom_type_symbol
 _atom_type_oxidation_number
  V0+  0.0
  Ga0+  0.0
loop_
 _atom_site_type_symbol
 _atom_site_label
 _atom_site_symmetry_multiplicity
 _atom_site_fract_x
 _atom_site_fract_y
 _atom_site_fract_z
 _atom_site_occupancy
  V0+  V0  1  0.18000000  0.68000000  0.50000000  1.0
  V0+  V1  1  0.82000000  0.32000000  0.50000000  1.0
  V0+  V2  1  0.32000000  0.18000000  0.50000000  1.0
  V0+  V3  1  0.68000000  0.82000000  0.50000000  1.0
  Ga0+  Ga4  1  0.00000000  0.50000000  0.00000000  1.0
  Ga0+  Ga5  1  0.50000000  0.00000000  0.00000000  1.0
  Ga0+  Ga6  1  0.70600000  0.56000000  0.00000000  1.0
  Ga0+  Ga7  1  0.29400000  0.44000000  0.00000000  1.0
  Ga0+  Ga8  1  0.79400000  0.06000000  0.00000000  1.0
  Ga0+  Ga9  1  0.20600000  0.94000000  0.00000000  1.0
  Ga0+  Ga10  1  0.56000000  0.29400000  0.00000000  1.0
  Ga0+  Ga11  1  0.44000000  0.70600000  0.00000000  1.0
  Ga0+  Ga12  1  0.06000000  0.20600000  0.00000000  1.0
  Ga0+  Ga13  1  0.94000000  0.79400000  0.00000000  1.0
