# generated using pymatgen
data_Zr5Ga3
_symmetry_space_group_name_H-M   'P 1'
_cell_length_a   8.07500000
_cell_length_b   8.07500000
_cell_length_c   5.73800000
_cell_angle_alpha   90.00000000
_cell_angle_beta   90.00000000
_cell_angle_gamma   120.00000000
_symmetry_Int_Tables_number   1
_chemical_formula_structural   Zr5Ga3
_chemical_formula_sum   'Zr10 Ga6'
_cell_volume   324.02329766
_cell_formula_units_Z   2
loop_
 _symmetry_equiv_pos_site_id
 _symmetry_equiv_pos_as_xyz
  1  'x, y, z'
loop_
 _atom_type_symbol
 _atom_type_oxidation_number
  Zr0+  0.0
  Ga0+  0.0
loop_
 _atom_site_type_symbol
 _atom_site_label
 _atom_site_symmetry_multiplicity
 _atom_site_fract_x
 _atom_site_fract_y
 _atom_site_fract_z
 _atom_site_occupancy
  Zr0+  Zr0  1  0.66666667  0.33333333  0.50000000  1.0
  Zr0+  Zr1  1  0.33333333  0.66666667  0.50000000  1.0
  Zr0+  Zr2  1  0.33333333  0.66666667  0.00000000  1.0
  Zr0+  Zr3  1  0.66666667  0.33333333  0.00000000  1.0
  Zr0+  Zr4  1  0.77000000  0.77000000  0.25000000  1.0
  Zr0+  Zr5  1  0.23000000  0.00000000  0.25000000  1.0
  Zr0+  Zr6  1  0.00000000  0.23000000  0.25000000  1.0
  Zr0+  Zr7  1  0.23000000  0.23000000  0.75000000  1.0
  Zr0+  Zr8  1  0.77000000  0.00000000  0.75000000  1.0
  Zr0+  Zr9  1  0.00000000  0.77000000  0.75000000  1.0
  Ga0+  Ga10  1  0.39000000  0.39000000  0.25000000  1.0
  Ga0+  Ga11  1  0.61000000  0.00000000  0.25000000  1.0
  Ga0+  Ga12  1  0.00000000  0.61000000  0.25000000  1.0
  Ga0+  Ga13  1  0.61000000  0.61000000  0.75000000  1.0
  Ga0+  Ga14  1  0.39000000  0.00000000  0.75000000  1.0
  Ga0+  Ga15  1  0.00000000  0.39000000  0.75000000  1.0
