# generated using pymatgen
data_Y5(Ge5Ir2)2
_symmetry_space_group_name_H-M   'P 1'
_cell_length_a   12.92700000
_cell_length_b   12.92700000
_cell_length_c   4.30800000
_cell_angle_alpha   90.00000000
_cell_angle_beta   90.00000000
_cell_angle_gamma   90.00000000
_symmetry_Int_Tables_number   1
_chemical_formula_structural   Y5(Ge5Ir2)2
_chemical_formula_sum   'Y10 Ge20 Ir8'
_cell_volume   719.89837333
_cell_formula_units_Z   2
loop_
 _symmetry_equiv_pos_site_id
 _symmetry_equiv_pos_as_xyz
  1  'x, y, z'
loop_
 _atom_type_symbol
 _atom_type_oxidation_number
  Y0+  0.0
  Ge0+  0.0
  Ir0+  0.0
loop_
 _atom_site_type_symbol
 _atom_site_label
 _atom_site_symmetry_multiplicity
 _atom_site_fract_x
 _atom_site_fract_y
 _atom_site_fract_z
 _atom_site_occupancy
  Y0+  Y0  1  0.50000000  0.50000000  0.00000000  1.0
  Y0+  Y1  1  0.00000000  0.00000000  0.00000000  1.0
  Y0+  Y2  1  0.17300000  0.67300000  0.50000000  1.0
  Y0+  Y3  1  0.82700000  0.32700000  0.50000000  1.0
  Y0+  Y4  1  0.32700000  0.17300000  0.50000000  1.0
  Y0+  Y5  1  0.67300000  0.82700000  0.50000000  1.0
  Y0+  Y6  1  0.38500000  0.88500000  0.50000000  1.0
  Y0+  Y7  1  0.61500000  0.11500000  0.50000000  1.0
  Y0+  Y8  1  0.11500000  0.38500000  0.50000000  1.0
  Y0+  Y9  1  0.88500000  0.61500000  0.50000000  1.0
  Ge0+  Ge10  1  0.06700000  0.56700000  0.00000000  1.0
  Ge0+  Ge11  1  0.93300000  0.43300000  0.00000000  1.0
  Ge0+  Ge12  1  0.43300000  0.06700000  0.00000000  1.0
  Ge0+  Ge13  1  0.56700000  0.93300000  0.00000000  1.0
  Ge0+  Ge14  1  0.70000000  0.66300000  0.00000000  1.0
  Ge0+  Ge15  1  0.30000000  0.33700000  0.00000000  1.0
  Ge0+  Ge16  1  0.80000000  0.16300000  0.00000000  1.0
  Ge0+  Ge17  1  0.20000000  0.83700000  0.00000000  1.0
  Ge0+  Ge18  1  0.66300000  0.30000000  0.00000000  1.0
  Ge0+  Ge19  1  0.33700000  0.70000000  0.00000000  1.0
  Ge0+  Ge20  1  0.16300000  0.20000000  0.00000000  1.0
  Ge0+  Ge21  1  0.83700000  0.80000000  0.00000000  1.0
  Ge0+  Ge22  1  0.51000000  0.65700000  0.50000000  1.0
  Ge0+  Ge23  1  0.49000000  0.34300000  0.50000000  1.0
  Ge0+  Ge24  1  0.99000000  0.15700000  0.50000000  1.0
  Ge0+  Ge25  1  0.01000000  0.84300000  0.50000000  1.0
  Ge0+  Ge26  1  0.65700000  0.49000000  0.50000000  1.0
  Ge0+  Ge27  1  0.34300000  0.51000000  0.50000000  1.0
  Ge0+  Ge28  1  0.15700000  0.01000000  0.50000000  1.0
  Ge0+  Ge29  1  0.84300000  0.99000000  0.50000000  1.0
  Ir0+  Ir30  1  0.52000000  0.74600000  0.00000000  1.0
  Ir0+  Ir31  1  0.48000000  0.25400000  0.00000000  1.0
  Ir0+  Ir32  1  0.98000000  0.24600000  0.00000000  1.0
  Ir0+  Ir33  1  0.02000000  0.75400000  0.00000000  1.0
  Ir0+  Ir34  1  0.74600000  0.48000000  0.00000000  1.0
  Ir0+  Ir35  1  0.25400000  0.52000000  0.00000000  1.0
  Ir0+  Ir36  1  0.24600000  0.02000000  0.00000000  1.0
  Ir0+  Ir37  1  0.75400000  0.98000000  0.00000000  1.0
