# generated using pymatgen
data_Ge3Mo5
_symmetry_space_group_name_H-M   'P 1'
_cell_length_a   9.83700000
_cell_length_b   9.83700000
_cell_length_c   4.97300000
_cell_angle_alpha   90.00000000
_cell_angle_beta   90.00000000
_cell_angle_gamma   90.00000000
_symmetry_Int_Tables_number   1
_chemical_formula_structural   Ge3Mo5
_chemical_formula_sum   'Ge12 Mo20'
_cell_volume   481.22014764
_cell_formula_units_Z   4
loop_
 _symmetry_equiv_pos_site_id
 _symmetry_equiv_pos_as_xyz
  1  'x, y, z'
loop_
 _atom_type_symbol
 _atom_type_oxidation_number
  Ge0+  0.0
  Mo0+  0.0
loop_
 _atom_site_type_symbol
 _atom_site_label
 _atom_site_symmetry_multiplicity
 _atom_site_fract_x
 _atom_site_fract_y
 _atom_site_fract_z
 _atom_site_occupancy
  Ge0+  Ge0  1  0.66800000  0.16800000  0.50000000  1.0
  Ge0+  Ge1  1  0.33200000  0.83200000  0.50000000  1.0
  Ge0+  Ge2  1  0.33200000  0.16800000  0.00000000  1.0
  Ge0+  Ge3  1  0.66800000  0.83200000  0.00000000  1.0
  Ge0+  Ge4  1  0.16800000  0.33200000  0.50000000  1.0
  Ge0+  Ge5  1  0.83200000  0.66800000  0.50000000  1.0
  Ge0+  Ge6  1  0.16800000  0.66800000  0.00000000  1.0
  Ge0+  Ge7  1  0.83200000  0.33200000  0.00000000  1.0
  Ge0+  Ge8  1  0.00000000  0.00000000  0.25000000  1.0
  Ge0+  Ge9  1  0.00000000  0.00000000  0.75000000  1.0
  Ge0+  Ge10  1  0.50000000  0.50000000  0.75000000  1.0
  Ge0+  Ge11  1  0.50000000  0.50000000  0.25000000  1.0
  Mo0+  Mo12  1  0.22800000  0.07600000  0.50000000  1.0
  Mo0+  Mo13  1  0.77200000  0.92400000  0.50000000  1.0
  Mo0+  Mo14  1  0.77200000  0.07600000  0.00000000  1.0
  Mo0+  Mo15  1  0.22800000  0.92400000  0.00000000  1.0
  Mo0+  Mo16  1  0.07600000  0.77200000  0.50000000  1.0
  Mo0+  Mo17  1  0.92400000  0.22800000  0.50000000  1.0
  Mo0+  Mo18  1  0.07600000  0.22800000  0.00000000  1.0
  Mo0+  Mo19  1  0.92400000  0.77200000  0.00000000  1.0
  Mo0+  Mo20  1  0.72800000  0.57600000  0.00000000  1.0
  Mo0+  Mo21  1  0.27200000  0.42400000  0.00000000  1.0
  Mo0+  Mo22  1  0.27200000  0.57600000  0.50000000  1.0
  Mo0+  Mo23  1  0.72800000  0.42400000  0.50000000  1.0
  Mo0+  Mo24  1  0.57600000  0.27200000  0.00000000  1.0
  Mo0+  Mo25  1  0.42400000  0.72800000  0.00000000  1.0
  Mo0+  Mo26  1  0.57600000  0.72800000  0.50000000  1.0
  Mo0+  Mo27  1  0.42400000  0.27200000  0.50000000  1.0
  Mo0+  Mo28  1  0.50000000  0.00000000  0.25000000  1.0
  Mo0+  Mo29  1  0.50000000  0.00000000  0.75000000  1.0
  Mo0+  Mo30  1  0.00000000  0.50000000  0.25000000  1.0
  Mo0+  Mo31  1  0.00000000  0.50000000  0.75000000  1.0
