# generated using pymatgen
data_Y5(Ge5Os2)2
_symmetry_space_group_name_H-M   'P 1'
_cell_length_a   13.00600000
_cell_length_b   13.00600000
_cell_length_c   4.29700000
_cell_angle_alpha   90.00000000
_cell_angle_beta   90.00000000
_cell_angle_gamma   90.00000000
_symmetry_Int_Tables_number   1
_chemical_formula_structural   Y5(Ge5Os2)2
_chemical_formula_sum   'Y10 Ge20 Os8'
_cell_volume   726.86348669
_cell_formula_units_Z   2
loop_
 _symmetry_equiv_pos_site_id
 _symmetry_equiv_pos_as_xyz
  1  'x, y, z'
loop_
 _atom_type_symbol
 _atom_type_oxidation_number
  Y0+  0.0
  Ge0+  0.0
  Os0+  0.0
loop_
 _atom_site_type_symbol
 _atom_site_label
 _atom_site_symmetry_multiplicity
 _atom_site_fract_x
 _atom_site_fract_y
 _atom_site_fract_z
 _atom_site_occupancy
  Y0+  Y0  1  0.50000000  0.50000000  0.00000000  1.0
  Y0+  Y1  1  0.00000000  0.00000000  0.00000000  1.0
  Y0+  Y2  1  0.17200000  0.67200000  0.50000000  1.0
  Y0+  Y3  1  0.82800000  0.32800000  0.50000000  1.0
  Y0+  Y4  1  0.32800000  0.17200000  0.50000000  1.0
  Y0+  Y5  1  0.67200000  0.82800000  0.50000000  1.0
  Y0+  Y6  1  0.38300000  0.88300000  0.50000000  1.0
  Y0+  Y7  1  0.61700000  0.11700000  0.50000000  1.0
  Y0+  Y8  1  0.11700000  0.38300000  0.50000000  1.0
  Y0+  Y9  1  0.88300000  0.61700000  0.50000000  1.0
  Ge0+  Ge10  1  0.06800000  0.56800000  0.00000000  1.0
  Ge0+  Ge11  1  0.93200000  0.43200000  0.00000000  1.0
  Ge0+  Ge12  1  0.43200000  0.06800000  0.00000000  1.0
  Ge0+  Ge13  1  0.56800000  0.93200000  0.00000000  1.0
  Ge0+  Ge14  1  0.69800000  0.66400000  0.00000000  1.0
  Ge0+  Ge15  1  0.30200000  0.33600000  0.00000000  1.0
  Ge0+  Ge16  1  0.80200000  0.16400000  0.00000000  1.0
  Ge0+  Ge17  1  0.19800000  0.83600000  0.00000000  1.0
  Ge0+  Ge18  1  0.66400000  0.30200000  0.00000000  1.0
  Ge0+  Ge19  1  0.33600000  0.69800000  0.00000000  1.0
  Ge0+  Ge20  1  0.16400000  0.19800000  0.00000000  1.0
  Ge0+  Ge21  1  0.83600000  0.80200000  0.00000000  1.0
  Ge0+  Ge22  1  0.50800000  0.65800000  0.50000000  1.0
  Ge0+  Ge23  1  0.49200000  0.34200000  0.50000000  1.0
  Ge0+  Ge24  1  0.99200000  0.15800000  0.50000000  1.0
  Ge0+  Ge25  1  0.00800000  0.84200000  0.50000000  1.0
  Ge0+  Ge26  1  0.65800000  0.49200000  0.50000000  1.0
  Ge0+  Ge27  1  0.34200000  0.50800000  0.50000000  1.0
  Ge0+  Ge28  1  0.15800000  0.00800000  0.50000000  1.0
  Ge0+  Ge29  1  0.84200000  0.99200000  0.50000000  1.0
  Os0+  Os30  1  0.51800000  0.74700000  0.00000000  1.0
  Os0+  Os31  1  0.48200000  0.25300000  0.00000000  1.0
  Os0+  Os32  1  0.98200000  0.24700000  0.00000000  1.0
  Os0+  Os33  1  0.01800000  0.75300000  0.00000000  1.0
  Os0+  Os34  1  0.74700000  0.48200000  0.00000000  1.0
  Os0+  Os35  1  0.25300000  0.51800000  0.00000000  1.0
  Os0+  Os36  1  0.24700000  0.01800000  0.00000000  1.0
  Os0+  Os37  1  0.75300000  0.98200000  0.00000000  1.0
