# generated using pymatgen
data_ReGe2
_symmetry_space_group_name_H-M   'P 1'
_cell_length_a   9.20500000
_cell_length_b   3.10800000
_cell_length_c   8.03200000
_cell_angle_alpha   90.00000000
_cell_angle_beta   120.70000000
_cell_angle_gamma   90.00000000
_symmetry_Int_Tables_number   1
_chemical_formula_structural   ReGe2
_chemical_formula_sum   'Re4 Ge8'
_cell_volume   197.58426043
_cell_formula_units_Z   4
loop_
 _symmetry_equiv_pos_site_id
 _symmetry_equiv_pos_as_xyz
  1  'x, y, z'
loop_
 _atom_type_symbol
 _atom_type_oxidation_number
  Re7+  7.0
  Ge4-  -4.0
  Ge3-  -3.0
loop_
 _atom_site_type_symbol
 _atom_site_label
 _atom_site_symmetry_multiplicity
 _atom_site_fract_x
 _atom_site_fract_y
 _atom_site_fract_z
 _atom_site_occupancy
  Re7+  Re0  1  0.84600000  0.00000000  0.80000000  1.0
  Re7+  Re1  1  0.15400000  0.00000000  0.20000000  1.0
  Re7+  Re2  1  0.34600000  0.50000000  0.80000000  1.0
  Re7+  Re3  1  0.65400000  0.50000000  0.20000000  1.0
  Ge3-  Ge4  1  0.64300000  0.50000000  0.53100000  1.0
  Ge3-  Ge5  1  0.35700000  0.50000000  0.46900000  1.0
  Ge3-  Ge6  1  0.14300000  0.00000000  0.53100000  1.0
  Ge3-  Ge7  1  0.85700000  0.00000000  0.46900000  1.0
  Ge4-  Ge8  1  0.60100000  0.00000000  0.88800000  1.0
  Ge4-  Ge9  1  0.39900000  0.00000000  0.11200000  1.0
  Ge4-  Ge10  1  0.10100000  0.50000000  0.88800000  1.0
  Ge4-  Ge11  1  0.89900000  0.50000000  0.11200000  1.0
