# generated using pymatgen
data_TaSe2
_symmetry_space_group_name_H-M   'P 1'
_cell_length_a   3.42100000
_cell_length_b   5.97000000
_cell_length_c   24.34100000
_cell_angle_alpha   90.00000000
_cell_angle_beta   90.00000000
_cell_angle_gamma   90.00000000
_symmetry_Int_Tables_number   1
_chemical_formula_structural   TaSe2
_chemical_formula_sum   'Ta4 Se8'
_cell_volume   497.12524917
_cell_formula_units_Z   4
loop_
 _symmetry_equiv_pos_site_id
 _symmetry_equiv_pos_as_xyz
  1  'x, y, z'
loop_
 _atom_type_symbol
 _atom_type_oxidation_number
  Ta2.92+  2.92
  Se2-  -2.0
loop_
 _atom_site_type_symbol
 _atom_site_label
 _atom_site_symmetry_multiplicity
 _atom_site_fract_x
 _atom_site_fract_y
 _atom_site_fract_z
 _atom_site_occupancy
  Ta2.92+  Ta0  1  0.00000000  0.00000000  0.00000000  1.0
  Ta2.92+  Ta1  1  0.00000000  0.50000000  0.50000000  1.0
  Ta2.92+  Ta2  1  0.50000000  0.00000000  0.50000000  1.0
  Ta2.92+  Ta3  1  0.50000000  0.50000000  0.00000000  1.0
  Se2-  Se4  1  0.00000000  0.33400000  0.06837000  1.0
  Se2-  Se5  1  0.00000000  0.33400000  0.93163000  1.0
  Se2-  Se6  1  0.00000000  0.83400000  0.56837000  1.0
  Se2-  Se7  1  0.00000000  0.83400000  0.43163000  1.0
  Se2-  Se8  1  0.50000000  0.33400000  0.56837000  1.0
  Se2-  Se9  1  0.50000000  0.33400000  0.43163000  1.0
  Se2-  Se10  1  0.50000000  0.83400000  0.06837000  1.0
  Se2-  Se11  1  0.50000000  0.83400000  0.93163000  1.0
