# generated using pymatgen
data_Y5(Ge5Rh2)2
_symmetry_space_group_name_H-M   'P 1'
_cell_length_a   12.94400000
_cell_length_b   12.94400000
_cell_length_c   4.27000000
_cell_angle_alpha   90.00000000
_cell_angle_beta   90.00000000
_cell_angle_gamma   90.00000000
_symmetry_Int_Tables_number   1
_chemical_formula_structural   Y5(Ge5Rh2)2
_chemical_formula_sum   'Y10 Ge20 Rh8'
_cell_volume   715.42627072
_cell_formula_units_Z   2
loop_
 _symmetry_equiv_pos_site_id
 _symmetry_equiv_pos_as_xyz
  1  'x, y, z'
loop_
 _atom_type_symbol
 _atom_type_oxidation_number
  Y0+  0.0
  Ge0+  0.0
  Rh0+  0.0
loop_
 _atom_site_type_symbol
 _atom_site_label
 _atom_site_symmetry_multiplicity
 _atom_site_fract_x
 _atom_site_fract_y
 _atom_site_fract_z
 _atom_site_occupancy
  Y0+  Y0  1  0.50000000  0.50000000  0.00000000  1.0
  Y0+  Y1  1  0.00000000  0.00000000  0.00000000  1.0
  Y0+  Y2  1  0.17500000  0.67500000  0.50000000  1.0
  Y0+  Y3  1  0.82500000  0.32500000  0.50000000  1.0
  Y0+  Y4  1  0.32500000  0.17500000  0.50000000  1.0
  Y0+  Y5  1  0.67500000  0.82500000  0.50000000  1.0
  Y0+  Y6  1  0.38700000  0.88700000  0.50000000  1.0
  Y0+  Y7  1  0.61300000  0.11300000  0.50000000  1.0
  Y0+  Y8  1  0.11300000  0.38700000  0.50000000  1.0
  Y0+  Y9  1  0.88700000  0.61300000  0.50000000  1.0
  Ge0+  Ge10  1  0.06700000  0.56700000  0.00000000  1.0
  Ge0+  Ge11  1  0.93300000  0.43300000  0.00000000  1.0
  Ge0+  Ge12  1  0.43300000  0.06700000  0.00000000  1.0
  Ge0+  Ge13  1  0.56700000  0.93300000  0.00000000  1.0
  Ge0+  Ge14  1  0.70000000  0.66100000  0.00000000  1.0
  Ge0+  Ge15  1  0.30000000  0.33900000  0.00000000  1.0
  Ge0+  Ge16  1  0.80000000  0.16100000  0.00000000  1.0
  Ge0+  Ge17  1  0.20000000  0.83900000  0.00000000  1.0
  Ge0+  Ge18  1  0.66100000  0.30000000  0.00000000  1.0
  Ge0+  Ge19  1  0.33900000  0.70000000  0.00000000  1.0
  Ge0+  Ge20  1  0.16100000  0.20000000  0.00000000  1.0
  Ge0+  Ge21  1  0.83900000  0.80000000  0.00000000  1.0
  Ge0+  Ge22  1  0.50300000  0.65900000  0.50000000  1.0
  Ge0+  Ge23  1  0.49700000  0.34100000  0.50000000  1.0
  Ge0+  Ge24  1  0.99700000  0.15900000  0.50000000  1.0
  Ge0+  Ge25  1  0.00300000  0.84100000  0.50000000  1.0
  Ge0+  Ge26  1  0.65900000  0.49700000  0.50000000  1.0
  Ge0+  Ge27  1  0.34100000  0.50300000  0.50000000  1.0
  Ge0+  Ge28  1  0.15900000  0.00300000  0.50000000  1.0
  Ge0+  Ge29  1  0.84100000  0.99700000  0.50000000  1.0
  Rh0+  Rh30  1  0.52100000  0.74600000  0.00000000  1.0
  Rh0+  Rh31  1  0.47900000  0.25400000  0.00000000  1.0
  Rh0+  Rh32  1  0.97900000  0.24600000  0.00000000  1.0
  Rh0+  Rh33  1  0.02100000  0.75400000  0.00000000  1.0
  Rh0+  Rh34  1  0.74600000  0.47900000  0.00000000  1.0
  Rh0+  Rh35  1  0.25400000  0.52100000  0.00000000  1.0
  Rh0+  Rh36  1  0.24600000  0.02100000  0.00000000  1.0
  Rh0+  Rh37  1  0.75400000  0.97900000  0.00000000  1.0
