# generated using pymatgen
data_ScGe2
_symmetry_space_group_name_H-M   'P 1'
_cell_length_a   3.88900000
_cell_length_b   14.88400000
_cell_length_c   3.79600000
_cell_angle_alpha   90.00000000
_cell_angle_beta   90.00000000
_cell_angle_gamma   90.00000000
_symmetry_Int_Tables_number   1
_chemical_formula_structural   ScGe2
_chemical_formula_sum   'Sc4 Ge8'
_cell_volume   219.72719330
_cell_formula_units_Z   4
loop_
 _symmetry_equiv_pos_site_id
 _symmetry_equiv_pos_as_xyz
  1  'x, y, z'
loop_
 _atom_type_symbol
 _atom_type_oxidation_number
  Sc0+  0.0
  Ge0+  0.0
loop_
 _atom_site_type_symbol
 _atom_site_label
 _atom_site_symmetry_multiplicity
 _atom_site_fract_x
 _atom_site_fract_y
 _atom_site_fract_z
 _atom_site_occupancy
  Sc0+  Sc0  1  0.00000000  0.10300000  0.25000000  1.0
  Sc0+  Sc1  1  0.00000000  0.89700000  0.75000000  1.0
  Sc0+  Sc2  1  0.50000000  0.60300000  0.25000000  1.0
  Sc0+  Sc3  1  0.50000000  0.39700000  0.75000000  1.0
  Ge0+  Ge4  1  0.00000000  0.43500000  0.25000000  1.0
  Ge0+  Ge5  1  0.00000000  0.56500000  0.75000000  1.0
  Ge0+  Ge6  1  0.50000000  0.93500000  0.25000000  1.0
  Ge0+  Ge7  1  0.50000000  0.06500000  0.75000000  1.0
  Ge0+  Ge8  1  0.00000000  0.75000000  0.25000000  1.0
  Ge0+  Ge9  1  0.00000000  0.25000000  0.75000000  1.0
  Ge0+  Ge10  1  0.50000000  0.25000000  0.25000000  1.0
  Ge0+  Ge11  1  0.50000000  0.75000000  0.75000000  1.0
