# generated using pymatgen
data_LiHg3
_symmetry_space_group_name_H-M   'P 1'
_cell_length_a   6.25200000
_cell_length_b   6.25200000
_cell_length_c   4.80400000
_cell_angle_alpha   90.00000000
_cell_angle_beta   90.00000000
_cell_angle_gamma   120.00000000
_symmetry_Int_Tables_number   1
_chemical_formula_structural   LiHg3
_chemical_formula_sum   'Li2 Hg6'
_cell_volume   162.61910597
_cell_formula_units_Z   2
loop_
 _symmetry_equiv_pos_site_id
 _symmetry_equiv_pos_as_xyz
  1  'x, y, z'
loop_
 _atom_type_symbol
 _atom_type_oxidation_number
  Li0+  0.0
  Hg0+  0.0
loop_
 _atom_site_type_symbol
 _atom_site_label
 _atom_site_symmetry_multiplicity
 _atom_site_fract_x
 _atom_site_fract_y
 _atom_site_fract_z
 _atom_site_occupancy
  Li0+  Li0  1  0.33333333  0.66666667  0.25000000  1.0
  Li0+  Li1  1  0.66666667  0.33333333  0.75000000  1.0
  Hg0+  Hg2  1  0.83300000  0.16700000  0.25000000  1.0
  Hg0+  Hg3  1  0.83300000  0.66600000  0.25000000  1.0
  Hg0+  Hg4  1  0.33400000  0.16700000  0.25000000  1.0
  Hg0+  Hg5  1  0.16700000  0.83300000  0.75000000  1.0
  Hg0+  Hg6  1  0.16700000  0.33400000  0.75000000  1.0
  Hg0+  Hg7  1  0.66600000  0.83300000  0.75000000  1.0
