# generated using pymatgen
data_Mg3Hg
_symmetry_space_group_name_H-M   'P 1'
_cell_length_a   4.83000000
_cell_length_b   4.83000000
_cell_length_c   8.62000000
_cell_angle_alpha   90.00000000
_cell_angle_beta   90.00000000
_cell_angle_gamma   120.00000000
_symmetry_Int_Tables_number   1
_chemical_formula_structural   Mg3Hg
_chemical_formula_sum   'Mg6 Hg2'
_cell_volume   174.15348077
_cell_formula_units_Z   2
loop_
 _symmetry_equiv_pos_site_id
 _symmetry_equiv_pos_as_xyz
  1  'x, y, z'
loop_
 _atom_type_symbol
 _atom_type_oxidation_number
  Mg0+  0.0
  Hg0+  0.0
loop_
 _atom_site_type_symbol
 _atom_site_label
 _atom_site_symmetry_multiplicity
 _atom_site_fract_x
 _atom_site_fract_y
 _atom_site_fract_z
 _atom_site_occupancy
  Mg0+  Mg0  1  0.00000000  0.00000000  0.25000000  1.0
  Mg0+  Mg1  1  0.00000000  0.00000000  0.75000000  1.0
  Mg0+  Mg2  1  0.33333333  0.66666667  0.94000000  1.0
  Mg0+  Mg3  1  0.66666667  0.33333333  0.06000000  1.0
  Mg0+  Mg4  1  0.66666667  0.33333333  0.44000000  1.0
  Mg0+  Mg5  1  0.33333333  0.66666667  0.56000000  1.0
  Hg0+  Hg6  1  0.33333333  0.66666667  0.25000000  1.0
  Hg0+  Hg7  1  0.66666667  0.33333333  0.75000000  1.0
