# generated using pymatgen
data_In2Mo15Se19
_symmetry_space_group_name_H-M   'P 1'
_cell_length_a   9.68700000
_cell_length_b   9.68700000
_cell_length_c   58.15000000
_cell_angle_alpha   90.00000000
_cell_angle_beta   90.00000000
_cell_angle_gamma   120.00000000
_symmetry_Int_Tables_number   1
_chemical_formula_structural   In2Mo15Se19
_chemical_formula_sum   'In12 Mo90 Se114'
_cell_volume   4725.62167937
_cell_formula_units_Z   6
loop_
 _symmetry_equiv_pos_site_id
 _symmetry_equiv_pos_as_xyz
  1  'x, y, z'
loop_
 _atom_type_symbol
 _atom_type_oxidation_number
  In3+  3.0
  Mo2.13+  2.13
  Se2-  -2.0
loop_
 _atom_site_type_symbol
 _atom_site_label
 _atom_site_symmetry_multiplicity
 _atom_site_fract_x
 _atom_site_fract_y
 _atom_site_fract_z
 _atom_site_occupancy
  In3+  In0  1  0.00000000  0.00000000  0.38600000  1.0
  In3+  In1  1  0.00000000  0.00000000  0.88600000  1.0
  In3+  In2  1  0.00000000  0.00000000  0.61400000  1.0
  In3+  In3  1  0.00000000  0.00000000  0.11400000  1.0
  In3+  In4  1  0.66666667  0.33333333  0.71933333  1.0
  In3+  In5  1  0.66666667  0.33333333  0.21933333  1.0
  In3+  In6  1  0.66666667  0.33333333  0.94733333  1.0
  In3+  In7  1  0.66666667  0.33333333  0.44733333  1.0
  In3+  In8  1  0.33333333  0.66666667  0.05266667  1.0
  In3+  In9  1  0.33333333  0.66666667  0.55266667  1.0
  In3+  In10  1  0.33333333  0.66666667  0.28066667  1.0
  In3+  In11  1  0.33333333  0.66666667  0.78066667  1.0
  Mo2.13+  Mo12  1  0.02000000  0.85100000  0.48000000  1.0
  Mo2.13+  Mo13  1  0.83100000  0.98000000  0.48000000  1.0
  Mo2.13+  Mo14  1  0.14900000  0.16900000  0.48000000  1.0
  Mo2.13+  Mo15  1  0.02000000  0.16900000  0.98000000  1.0
  Mo2.13+  Mo16  1  0.14900000  0.98000000  0.98000000  1.0
  Mo2.13+  Mo17  1  0.83100000  0.85100000  0.98000000  1.0
  Mo2.13+  Mo18  1  0.98000000  0.14900000  0.52000000  1.0
  Mo2.13+  Mo19  1  0.16900000  0.02000000  0.52000000  1.0
  Mo2.13+  Mo20  1  0.85100000  0.83100000  0.52000000  1.0
  Mo2.13+  Mo21  1  0.98000000  0.83100000  0.02000000  1.0
  Mo2.13+  Mo22  1  0.85100000  0.02000000  0.02000000  1.0
  Mo2.13+  Mo23  1  0.16900000  0.14900000  0.02000000  1.0
  Mo2.13+  Mo24  1  0.68666667  0.18433333  0.81333333  1.0
  Mo2.13+  Mo25  1  0.49766667  0.31333333  0.81333333  1.0
  Mo2.13+  Mo26  1  0.81566667  0.50233333  0.81333333  1.0
  Mo2.13+  Mo27  1  0.68666667  0.50233333  0.31333333  1.0
  Mo2.13+  Mo28  1  0.81566667  0.31333333  0.31333333  1.0
  Mo2.13+  Mo29  1  0.49766667  0.18433333  0.31333333  1.0
  Mo2.13+  Mo30  1  0.64666667  0.48233333  0.85333333  1.0
  Mo2.13+  Mo31  1  0.83566667  0.35333333  0.85333333  1.0
  Mo2.13+  Mo32  1  0.51766667  0.16433333  0.85333333  1.0
  Mo2.13+  Mo33  1  0.64666667  0.16433333  0.35333333  1.0
  Mo2.13+  Mo34  1  0.51766667  0.35333333  0.35333333  1.0
  Mo2.13+  Mo35  1  0.83566667  0.48233333  0.35333333  1.0
  Mo2.13+  Mo36  1  0.35333333  0.51766667  0.14666667  1.0
  Mo2.13+  Mo37  1  0.16433333  0.64666667  0.14666667  1.0
  Mo2.13+  Mo38  1  0.48233333  0.83566667  0.14666667  1.0
  Mo2.13+  Mo39  1  0.35333333  0.83566667  0.64666667  1.0
  Mo2.13+  Mo40  1  0.48233333  0.64666667  0.64666667  1.0
  Mo2.13+  Mo41  1  0.16433333  0.51766667  0.64666667  1.0
  Mo2.13+  Mo42  1  0.31333333  0.81566667  0.18666667  1.0
  Mo2.13+  Mo43  1  0.50233333  0.68666667  0.18666667  1.0
  Mo2.13+  Mo44  1  0.18433333  0.49766667  0.18666667  1.0
  Mo2.13+  Mo45  1  0.31333333  0.49766667  0.68666667  1.0
  Mo2.13+  Mo46  1  0.18433333  0.68666667  0.68666667  1.0
  Mo2.13+  Mo47  1  0.50233333  0.81566667  0.68666667  1.0
  Mo2.13+  Mo48  1  0.98800000  0.83500000  0.28900000  1.0
  Mo2.13+  Mo49  1  0.84700000  0.01200000  0.28900000  1.0
  Mo2.13+  Mo50  1  0.16500000  0.15300000  0.28900000  1.0
  Mo2.13+  Mo51  1  0.98800000  0.15300000  0.78900000  1.0
  Mo2.13+  Mo52  1  0.16500000  0.01200000  0.78900000  1.0
  Mo2.13+  Mo53  1  0.84700000  0.83500000  0.78900000  1.0
  Mo2.13+  Mo54  1  0.01200000  0.16500000  0.71100000  1.0
  Mo2.13+  Mo55  1  0.15300000  0.98800000  0.71100000  1.0
  Mo2.13+  Mo56  1  0.83500000  0.84700000  0.71100000  1.0
  Mo2.13+  Mo57  1  0.01200000  0.84700000  0.21100000  1.0
  Mo2.13+  Mo58  1  0.83500000  0.98800000  0.21100000  1.0
  Mo2.13+  Mo59  1  0.15300000  0.16500000  0.21100000  1.0
  Mo2.13+  Mo60  1  0.65466667  0.16833333  0.62233333  1.0
  Mo2.13+  Mo61  1  0.51366667  0.34533333  0.62233333  1.0
  Mo2.13+  Mo62  1  0.83166667  0.48633333  0.62233333  1.0
  Mo2.13+  Mo63  1  0.65466667  0.48633333  0.12233333  1.0
  Mo2.13+  Mo64  1  0.83166667  0.34533333  0.12233333  1.0
  Mo2.13+  Mo65  1  0.51366667  0.16833333  0.12233333  1.0
  Mo2.13+  Mo66  1  0.67866667  0.49833333  0.04433333  1.0
  Mo2.13+  Mo67  1  0.81966667  0.32133333  0.04433333  1.0
  Mo2.13+  Mo68  1  0.50166667  0.18033333  0.04433333  1.0
  Mo2.13+  Mo69  1  0.67866667  0.18033333  0.54433333  1.0
  Mo2.13+  Mo70  1  0.50166667  0.32133333  0.54433333  1.0
  Mo2.13+  Mo71  1  0.81966667  0.49833333  0.54433333  1.0
  Mo2.13+  Mo72  1  0.32133333  0.50166667  0.95566667  1.0
  Mo2.13+  Mo73  1  0.18033333  0.67866667  0.95566667  1.0
  Mo2.13+  Mo74  1  0.49833333  0.81966667  0.95566667  1.0
  Mo2.13+  Mo75  1  0.32133333  0.81966667  0.45566667  1.0
  Mo2.13+  Mo76  1  0.49833333  0.67866667  0.45566667  1.0
  Mo2.13+  Mo77  1  0.18033333  0.50166667  0.45566667  1.0
  Mo2.13+  Mo78  1  0.34533333  0.83166667  0.37766667  1.0
  Mo2.13+  Mo79  1  0.48633333  0.65466667  0.37766667  1.0
  Mo2.13+  Mo80  1  0.16833333  0.51366667  0.37766667  1.0
  Mo2.13+  Mo81  1  0.34533333  0.51366667  0.87766667  1.0
  Mo2.13+  Mo82  1  0.16833333  0.65466667  0.87766667  1.0
  Mo2.13+  Mo83  1  0.48633333  0.83166667  0.87766667  1.0
  Mo2.13+  Mo84  1  0.16000000  0.00000000  0.25000000  1.0
  Mo2.13+  Mo85  1  0.84000000  0.84000000  0.25000000  1.0
  Mo2.13+  Mo86  1  0.00000000  0.16000000  0.25000000  1.0
  Mo2.13+  Mo87  1  0.16000000  0.16000000  0.75000000  1.0
  Mo2.13+  Mo88  1  0.00000000  0.84000000  0.75000000  1.0
  Mo2.13+  Mo89  1  0.84000000  0.00000000  0.75000000  1.0
  Mo2.13+  Mo90  1  0.82666667  0.33333333  0.58333333  1.0
  Mo2.13+  Mo91  1  0.50666667  0.17333333  0.58333333  1.0
  Mo2.13+  Mo92  1  0.66666667  0.49333333  0.58333333  1.0
  Mo2.13+  Mo93  1  0.82666667  0.49333333  0.08333333  1.0
  Mo2.13+  Mo94  1  0.66666667  0.17333333  0.08333333  1.0
  Mo2.13+  Mo95  1  0.50666667  0.33333333  0.08333333  1.0
  Mo2.13+  Mo96  1  0.49333333  0.66666667  0.91666667  1.0
  Mo2.13+  Mo97  1  0.17333333  0.50666667  0.91666667  1.0
  Mo2.13+  Mo98  1  0.33333333  0.82666667  0.91666667  1.0
  Mo2.13+  Mo99  1  0.49333333  0.82666667  0.41666667  1.0
  Mo2.13+  Mo100  1  0.33333333  0.50666667  0.41666667  1.0
  Mo2.13+  Mo101  1  0.17333333  0.66666667  0.41666667  1.0
  Se2-  Se102  1  0.71300000  0.67300000  0.48300000  1.0
  Se2-  Se103  1  0.96000000  0.28700000  0.48300000  1.0
  Se2-  Se104  1  0.32700000  0.04000000  0.48300000  1.0
  Se2-  Se105  1  0.71300000  0.04000000  0.98300000  1.0
  Se2-  Se106  1  0.32700000  0.28700000  0.98300000  1.0
  Se2-  Se107  1  0.96000000  0.67300000  0.98300000  1.0
  Se2-  Se108  1  0.28700000  0.32700000  0.51700000  1.0
  Se2-  Se109  1  0.04000000  0.71300000  0.51700000  1.0
  Se2-  Se110  1  0.67300000  0.96000000  0.51700000  1.0
  Se2-  Se111  1  0.28700000  0.96000000  0.01700000  1.0
  Se2-  Se112  1  0.67300000  0.71300000  0.01700000  1.0
  Se2-  Se113  1  0.04000000  0.32700000  0.01700000  1.0
  Se2-  Se114  1  0.37966667  0.00633333  0.81633333  1.0
  Se2-  Se115  1  0.62666667  0.62033333  0.81633333  1.0
  Se2-  Se116  1  0.99366667  0.37333333  0.81633333  1.0
  Se2-  Se117  1  0.37966667  0.37333333  0.31633333  1.0
  Se2-  Se118  1  0.99366667  0.62033333  0.31633333  1.0
  Se2-  Se119  1  0.62666667  0.00633333  0.31633333  1.0
  Se2-  Se120  1  0.95366667  0.66033333  0.85033333  1.0
  Se2-  Se121  1  0.70666667  0.04633333  0.85033333  1.0
  Se2-  Se122  1  0.33966667  0.29333333  0.85033333  1.0
  Se2-  Se123  1  0.95366667  0.29333333  0.35033333  1.0
  Se2-  Se124  1  0.33966667  0.04633333  0.35033333  1.0
  Se2-  Se125  1  0.70666667  0.66033333  0.35033333  1.0
  Se2-  Se126  1  0.04633333  0.33966667  0.14966667  1.0
  Se2-  Se127  1  0.29333333  0.95366667  0.14966667  1.0
  Se2-  Se128  1  0.66033333  0.70666667  0.14966667  1.0
  Se2-  Se129  1  0.04633333  0.70666667  0.64966667  1.0
  Se2-  Se130  1  0.66033333  0.95366667  0.64966667  1.0
  Se2-  Se131  1  0.29333333  0.33966667  0.64966667  1.0
  Se2-  Se132  1  0.62033333  0.99366667  0.18366667  1.0
  Se2-  Se133  1  0.37333333  0.37966667  0.18366667  1.0
  Se2-  Se134  1  0.00633333  0.62666667  0.18366667  1.0
  Se2-  Se135  1  0.62033333  0.62666667  0.68366667  1.0
  Se2-  Se136  1  0.00633333  0.37966667  0.68366667  1.0
  Se2-  Se137  1  0.37333333  0.99366667  0.68366667  1.0
  Se2-  Se138  1  0.29400000  0.97000000  0.28600000  1.0
  Se2-  Se139  1  0.67600000  0.70600000  0.28600000  1.0
  Se2-  Se140  1  0.03000000  0.32400000  0.28600000  1.0
  Se2-  Se141  1  0.29400000  0.32400000  0.78600000  1.0
  Se2-  Se142  1  0.03000000  0.70600000  0.78600000  1.0
  Se2-  Se143  1  0.67600000  0.97000000  0.78600000  1.0
  Se2-  Se144  1  0.70600000  0.03000000  0.71400000  1.0
  Se2-  Se145  1  0.32400000  0.29400000  0.71400000  1.0
  Se2-  Se146  1  0.97000000  0.67600000  0.71400000  1.0
  Se2-  Se147  1  0.70600000  0.67600000  0.21400000  1.0
  Se2-  Se148  1  0.97000000  0.29400000  0.21400000  1.0
  Se2-  Se149  1  0.32400000  0.03000000  0.21400000  1.0
  Se2-  Se150  1  0.96066667  0.30333333  0.61933333  1.0
  Se2-  Se151  1  0.34266667  0.03933333  0.61933333  1.0
  Se2-  Se152  1  0.69666667  0.65733333  0.61933333  1.0
  Se2-  Se153  1  0.96066667  0.65733333  0.11933333  1.0
  Se2-  Se154  1  0.69666667  0.03933333  0.11933333  1.0
  Se2-  Se155  1  0.34266667  0.30333333  0.11933333  1.0
  Se2-  Se156  1  0.37266667  0.36333333  0.04733333  1.0
  Se2-  Se157  1  0.99066667  0.62733333  0.04733333  1.0
  Se2-  Se158  1  0.63666667  0.00933333  0.04733333  1.0
  Se2-  Se159  1  0.37266667  0.00933333  0.54733333  1.0
  Se2-  Se160  1  0.63666667  0.62733333  0.54733333  1.0
  Se2-  Se161  1  0.99066667  0.36333333  0.54733333  1.0
  Se2-  Se162  1  0.62733333  0.63666667  0.95266667  1.0
  Se2-  Se163  1  0.00933333  0.37266667  0.95266667  1.0
  Se2-  Se164  1  0.36333333  0.99066667  0.95266667  1.0
  Se2-  Se165  1  0.62733333  0.99066667  0.45266667  1.0
  Se2-  Se166  1  0.36333333  0.37266667  0.45266667  1.0
  Se2-  Se167  1  0.00933333  0.63666667  0.45266667  1.0
  Se2-  Se168  1  0.03933333  0.69666667  0.38066667  1.0
  Se2-  Se169  1  0.65733333  0.96066667  0.38066667  1.0
  Se2-  Se170  1  0.30333333  0.34266667  0.38066667  1.0
  Se2-  Se171  1  0.03933333  0.34266667  0.88066667  1.0
  Se2-  Se172  1  0.30333333  0.96066667  0.88066667  1.0
  Se2-  Se173  1  0.65733333  0.69666667  0.88066667  1.0
  Se2-  Se174  1  0.69000000  0.00000000  0.25000000  1.0
  Se2-  Se175  1  0.31000000  0.31000000  0.25000000  1.0
  Se2-  Se176  1  0.00000000  0.69000000  0.25000000  1.0
  Se2-  Se177  1  0.69000000  0.69000000  0.75000000  1.0
  Se2-  Se178  1  0.00000000  0.31000000  0.75000000  1.0
  Se2-  Se179  1  0.31000000  0.00000000  0.75000000  1.0
  Se2-  Se180  1  0.35666667  0.33333333  0.58333333  1.0
  Se2-  Se181  1  0.97666667  0.64333333  0.58333333  1.0
  Se2-  Se182  1  0.66666667  0.02333333  0.58333333  1.0
  Se2-  Se183  1  0.35666667  0.02333333  0.08333333  1.0
  Se2-  Se184  1  0.66666667  0.64333333  0.08333333  1.0
  Se2-  Se185  1  0.97666667  0.33333333  0.08333333  1.0
  Se2-  Se186  1  0.02333333  0.66666667  0.91666667  1.0
  Se2-  Se187  1  0.64333333  0.97666667  0.91666667  1.0
  Se2-  Se188  1  0.33333333  0.35666667  0.91666667  1.0
  Se2-  Se189  1  0.02333333  0.35666667  0.41666667  1.0
  Se2-  Se190  1  0.33333333  0.97666667  0.41666667  1.0
  Se2-  Se191  1  0.64333333  0.66666667  0.41666667  1.0
  Se2-  Se192  1  0.00000000  0.00000000  0.44500000  1.0
  Se2-  Se193  1  0.00000000  0.00000000  0.94500000  1.0
  Se2-  Se194  1  0.00000000  0.00000000  0.55500000  1.0
  Se2-  Se195  1  0.00000000  0.00000000  0.05500000  1.0
  Se2-  Se196  1  0.66666667  0.33333333  0.77833333  1.0
  Se2-  Se197  1  0.66666667  0.33333333  0.27833333  1.0
  Se2-  Se198  1  0.66666667  0.33333333  0.88833333  1.0
  Se2-  Se199  1  0.66666667  0.33333333  0.38833333  1.0
  Se2-  Se200  1  0.33333333  0.66666667  0.11166667  1.0
  Se2-  Se201  1  0.33333333  0.66666667  0.61166667  1.0
  Se2-  Se202  1  0.33333333  0.66666667  0.22166667  1.0
  Se2-  Se203  1  0.33333333  0.66666667  0.72166667  1.0
  Se2-  Se204  1  0.00000000  0.00000000  0.32400000  1.0
  Se2-  Se205  1  0.00000000  0.00000000  0.82400000  1.0
  Se2-  Se206  1  0.00000000  0.00000000  0.67600000  1.0
  Se2-  Se207  1  0.00000000  0.00000000  0.17600000  1.0
  Se2-  Se208  1  0.66666667  0.33333333  0.65733333  1.0
  Se2-  Se209  1  0.66666667  0.33333333  0.15733333  1.0
  Se2-  Se210  1  0.66666667  0.33333333  0.00933333  1.0
  Se2-  Se211  1  0.66666667  0.33333333  0.50933333  1.0
  Se2-  Se212  1  0.33333333  0.66666667  0.99066667  1.0
  Se2-  Se213  1  0.33333333  0.66666667  0.49066667  1.0
  Se2-  Se214  1  0.33333333  0.66666667  0.34266667  1.0
  Se2-  Se215  1  0.33333333  0.66666667  0.84266667  1.0
