# generated using pymatgen
data_Mo3S4
_symmetry_space_group_name_H-M   'P 1'
_cell_length_a   9.19100000
_cell_length_b   9.19100000
_cell_length_c   10.87850000
_cell_angle_alpha   90.00000000
_cell_angle_beta   90.00000000
_cell_angle_gamma   120.00000000
_symmetry_Int_Tables_number   1
_chemical_formula_structural   Mo3S4
_chemical_formula_sum   'Mo18 S24'
_cell_volume   795.83893054
_cell_formula_units_Z   6
loop_
 _symmetry_equiv_pos_site_id
 _symmetry_equiv_pos_as_xyz
  1  'x, y, z'
loop_
 _atom_type_symbol
 _atom_type_oxidation_number
  Mo2.667+  2.667
  S2-  -2.0
loop_
 _atom_site_type_symbol
 _atom_site_label
 _atom_site_symmetry_multiplicity
 _atom_site_fract_x
 _atom_site_fract_y
 _atom_site_fract_z
 _atom_site_occupancy
  Mo2.667+  Mo0  1  0.98770000  0.82350000  0.61250000  1.0
  Mo2.667+  Mo1  1  0.83580000  0.01230000  0.61250000  1.0
  Mo2.667+  Mo2  1  0.17650000  0.16420000  0.61250000  1.0
  Mo2.667+  Mo3  1  0.01230000  0.17650000  0.38750000  1.0
  Mo2.667+  Mo4  1  0.16420000  0.98770000  0.38750000  1.0
  Mo2.667+  Mo5  1  0.82350000  0.83580000  0.38750000  1.0
  Mo2.667+  Mo6  1  0.65436667  0.15683333  0.94583333  1.0
  Mo2.667+  Mo7  1  0.50246667  0.34563333  0.94583333  1.0
  Mo2.667+  Mo8  1  0.84316667  0.49753333  0.94583333  1.0
  Mo2.667+  Mo9  1  0.67896667  0.50983333  0.72083333  1.0
  Mo2.667+  Mo10  1  0.83086667  0.32103333  0.72083333  1.0
  Mo2.667+  Mo11  1  0.49016667  0.16913333  0.72083333  1.0
  Mo2.667+  Mo12  1  0.32103333  0.49016667  0.27916667  1.0
  Mo2.667+  Mo13  1  0.16913333  0.67896667  0.27916667  1.0
  Mo2.667+  Mo14  1  0.50983333  0.83086667  0.27916667  1.0
  Mo2.667+  Mo15  1  0.34563333  0.84316667  0.05416667  1.0
  Mo2.667+  Mo16  1  0.49753333  0.65436667  0.05416667  1.0
  Mo2.667+  Mo17  1  0.15683333  0.50246667  0.05416667  1.0
  S2-  S18  1  0.29440000  0.95680000  0.58560000  1.0
  S2-  S19  1  0.66240000  0.70560000  0.58560000  1.0
  S2-  S20  1  0.04320000  0.33760000  0.58560000  1.0
  S2-  S21  1  0.70560000  0.04320000  0.41440000  1.0
  S2-  S22  1  0.33760000  0.29440000  0.41440000  1.0
  S2-  S23  1  0.95680000  0.66240000  0.41440000  1.0
  S2-  S24  1  0.96106667  0.29013333  0.91893333  1.0
  S2-  S25  1  0.32906667  0.03893333  0.91893333  1.0
  S2-  S26  1  0.70986667  0.67093333  0.91893333  1.0
  S2-  S27  1  0.37226667  0.37653333  0.74773333  1.0
  S2-  S28  1  0.00426667  0.62773333  0.74773333  1.0
  S2-  S29  1  0.62346667  0.99573333  0.74773333  1.0
  S2-  S30  1  0.62773333  0.62346667  0.25226667  1.0
  S2-  S31  1  0.99573333  0.37226667  0.25226667  1.0
  S2-  S32  1  0.37653333  0.00426667  0.25226667  1.0
  S2-  S33  1  0.03893333  0.70986667  0.08106667  1.0
  S2-  S34  1  0.67093333  0.96106667  0.08106667  1.0
  S2-  S35  1  0.29013333  0.32906667  0.08106667  1.0
  S2-  S36  1  0.00000000  0.00000000  0.80070000  1.0
  S2-  S37  1  0.00000000  0.00000000  0.19930000  1.0
  S2-  S38  1  0.66666667  0.33333333  0.13403333  1.0
  S2-  S39  1  0.66666667  0.33333333  0.53263333  1.0
  S2-  S40  1  0.33333333  0.66666667  0.46736667  1.0
  S2-  S41  1  0.33333333  0.66666667  0.86596667  1.0
