# generated using pymatgen
data_TiSiIr
_symmetry_space_group_name_H-M   'P 1'
_cell_length_a   6.25780000
_cell_length_b   3.85810000
_cell_length_c   7.20060000
_cell_angle_alpha   90.00000000
_cell_angle_beta   90.00000000
_cell_angle_gamma   90.00000000
_symmetry_Int_Tables_number   1
_chemical_formula_structural   TiSiIr
_chemical_formula_sum   'Ti4 Si4 Ir4'
_cell_volume   173.84565683
_cell_formula_units_Z   4
loop_
 _symmetry_equiv_pos_site_id
 _symmetry_equiv_pos_as_xyz
  1  'x, y, z'
loop_
 _atom_type_symbol
 _atom_type_oxidation_number
  Ti0+  0.0
  Si0+  0.0
  Ir0+  0.0
loop_
 _atom_site_type_symbol
 _atom_site_label
 _atom_site_symmetry_multiplicity
 _atom_site_fract_x
 _atom_site_fract_y
 _atom_site_fract_z
 _atom_site_occupancy
  Ti0+  Ti0  1  0.52100000  0.25000000  0.32000000  1.0
  Ti0+  Ti1  1  0.02100000  0.25000000  0.18000000  1.0
  Ti0+  Ti2  1  0.47900000  0.75000000  0.68000000  1.0
  Ti0+  Ti3  1  0.97900000  0.75000000  0.82000000  1.0
  Si0+  Si4  1  0.26500000  0.25000000  0.87700000  1.0
  Si0+  Si5  1  0.76500000  0.25000000  0.62300000  1.0
  Si0+  Si6  1  0.73500000  0.75000000  0.12300000  1.0
  Si0+  Si7  1  0.23500000  0.75000000  0.37700000  1.0
  Ir0+  Ir8  1  0.64200000  0.25000000  0.93900000  1.0
  Ir0+  Ir9  1  0.14200000  0.25000000  0.56100000  1.0
  Ir0+  Ir10  1  0.35800000  0.75000000  0.06100000  1.0
  Ir0+  Ir11  1  0.85800000  0.75000000  0.43900000  1.0
