# generated using pymatgen
data_Y2Si5Ir3
_symmetry_space_group_name_H-M   'P 1'
_cell_length_a   9.87700000
_cell_length_b   11.69300000
_cell_length_c   5.71400000
_cell_angle_alpha   90.00000000
_cell_angle_beta   90.00000000
_cell_angle_gamma   90.00000000
_symmetry_Int_Tables_number   1
_chemical_formula_structural   Y2Si5Ir3
_chemical_formula_sum   'Y8 Si20 Ir12'
_cell_volume   659.91992235
_cell_formula_units_Z   4
loop_
 _symmetry_equiv_pos_site_id
 _symmetry_equiv_pos_as_xyz
  1  'x, y, z'
loop_
 _atom_type_symbol
 _atom_type_oxidation_number
  Y0+  0.0
  Si0+  0.0
  Ir0+  0.0
loop_
 _atom_site_type_symbol
 _atom_site_label
 _atom_site_symmetry_multiplicity
 _atom_site_fract_x
 _atom_site_fract_y
 _atom_site_fract_z
 _atom_site_occupancy
  Y0+  Y0  1  0.73300000  0.13000000  0.50000000  1.0
  Y0+  Y1  1  0.26700000  0.87000000  0.50000000  1.0
  Y0+  Y2  1  0.26700000  0.13000000  0.00000000  1.0
  Y0+  Y3  1  0.73300000  0.87000000  0.00000000  1.0
  Y0+  Y4  1  0.23300000  0.63000000  0.00000000  1.0
  Y0+  Y5  1  0.76700000  0.37000000  0.00000000  1.0
  Y0+  Y6  1  0.76700000  0.63000000  0.50000000  1.0
  Y0+  Y7  1  0.23300000  0.37000000  0.50000000  1.0
  Si0+  Si8  1  0.50000000  0.00000000  0.75000000  1.0
  Si0+  Si9  1  0.50000000  0.00000000  0.25000000  1.0
  Si0+  Si10  1  0.00000000  0.50000000  0.25000000  1.0
  Si0+  Si11  1  0.00000000  0.50000000  0.75000000  1.0
  Si0+  Si12  1  0.00000000  0.22600000  0.75000000  1.0
  Si0+  Si13  1  0.00000000  0.77400000  0.75000000  1.0
  Si0+  Si14  1  0.00000000  0.77400000  0.25000000  1.0
  Si0+  Si15  1  0.00000000  0.22600000  0.25000000  1.0
  Si0+  Si16  1  0.50000000  0.72600000  0.25000000  1.0
  Si0+  Si17  1  0.50000000  0.27400000  0.25000000  1.0
  Si0+  Si18  1  0.50000000  0.27400000  0.75000000  1.0
  Si0+  Si19  1  0.50000000  0.72600000  0.75000000  1.0
  Si0+  Si20  1  0.64300000  0.40300000  0.50000000  1.0
  Si0+  Si21  1  0.35700000  0.59700000  0.50000000  1.0
  Si0+  Si22  1  0.35700000  0.40300000  0.00000000  1.0
  Si0+  Si23  1  0.64300000  0.59700000  0.00000000  1.0
  Si0+  Si24  1  0.14300000  0.90300000  0.00000000  1.0
  Si0+  Si25  1  0.85700000  0.09700000  0.00000000  1.0
  Si0+  Si26  1  0.85700000  0.90300000  0.50000000  1.0
  Si0+  Si27  1  0.14300000  0.09700000  0.50000000  1.0
  Ir0+  Ir28  1  0.00000000  0.00000000  0.75000000  1.0
  Ir0+  Ir29  1  0.00000000  0.00000000  0.25000000  1.0
  Ir0+  Ir30  1  0.50000000  0.50000000  0.25000000  1.0
  Ir0+  Ir31  1  0.50000000  0.50000000  0.75000000  1.0
  Ir0+  Ir32  1  0.89400000  0.36600000  0.50000000  1.0
  Ir0+  Ir33  1  0.10600000  0.63400000  0.50000000  1.0
  Ir0+  Ir34  1  0.10600000  0.36600000  0.00000000  1.0
  Ir0+  Ir35  1  0.89400000  0.63400000  0.00000000  1.0
  Ir0+  Ir36  1  0.39400000  0.86600000  0.00000000  1.0
  Ir0+  Ir37  1  0.60600000  0.13400000  0.00000000  1.0
  Ir0+  Ir38  1  0.60600000  0.86600000  0.50000000  1.0
  Ir0+  Ir39  1  0.39400000  0.13400000  0.50000000  1.0
