# generated using pymatgen
data_ZrSiIr
_symmetry_space_group_name_H-M   'P 1'
_cell_length_a   6.55780000
_cell_length_b   3.95370000
_cell_length_c   7.37620000
_cell_angle_alpha   90.00000000
_cell_angle_beta   90.00000000
_cell_angle_gamma   90.00000000
_symmetry_Int_Tables_number   1
_chemical_formula_structural   ZrSiIr
_chemical_formula_sum   'Zr4 Si4 Ir4'
_cell_volume   191.24697031
_cell_formula_units_Z   4
loop_
 _symmetry_equiv_pos_site_id
 _symmetry_equiv_pos_as_xyz
  1  'x, y, z'
loop_
 _atom_type_symbol
 _atom_type_oxidation_number
  Zr0+  0.0
  Si0+  0.0
  Ir0+  0.0
loop_
 _atom_site_type_symbol
 _atom_site_label
 _atom_site_symmetry_multiplicity
 _atom_site_fract_x
 _atom_site_fract_y
 _atom_site_fract_z
 _atom_site_occupancy
  Zr0+  Zr0  1  0.52000000  0.25000000  0.81500000  1.0
  Zr0+  Zr1  1  0.02000000  0.25000000  0.68500000  1.0
  Zr0+  Zr2  1  0.48000000  0.75000000  0.18500000  1.0
  Zr0+  Zr3  1  0.98000000  0.75000000  0.31500000  1.0
  Si0+  Si4  1  0.77400000  0.25000000  0.11800000  1.0
  Si0+  Si5  1  0.27400000  0.25000000  0.38200000  1.0
  Si0+  Si6  1  0.22600000  0.75000000  0.88200000  1.0
  Si0+  Si7  1  0.72600000  0.75000000  0.61800000  1.0
  Ir0+  Ir8  1  0.65000000  0.25000000  0.43500000  1.0
  Ir0+  Ir9  1  0.15000000  0.25000000  0.06500000  1.0
  Ir0+  Ir10  1  0.35000000  0.75000000  0.56500000  1.0
  Ir0+  Ir11  1  0.85000000  0.75000000  0.93500000  1.0
