# generated using pymatgen
data_Y3Ir2
_symmetry_space_group_name_H-M   'P 1'
_cell_length_a   11.24100000
_cell_length_b   11.24100000
_cell_length_c   25.17000000
_cell_angle_alpha   90.00000000
_cell_angle_beta   90.00000000
_cell_angle_gamma   90.00000000
_symmetry_Int_Tables_number   1
_chemical_formula_structural   Y3Ir2
_chemical_formula_sum   'Y84 Ir56'
_cell_volume   3180.48323877
_cell_formula_units_Z   28
loop_
 _symmetry_equiv_pos_site_id
 _symmetry_equiv_pos_as_xyz
  1  'x, y, z'
loop_
 _atom_type_symbol
 _atom_type_oxidation_number
  Y0+  0.0
  Ir0+  0.0
loop_
 _atom_site_type_symbol
 _atom_site_label
 _atom_site_symmetry_multiplicity
 _atom_site_fract_x
 _atom_site_fract_y
 _atom_site_fract_z
 _atom_site_occupancy
  Y0+  Y0  1  0.07600000  0.20400000  0.42900000  1.0
  Y0+  Y1  1  0.92400000  0.79600000  0.42900000  1.0
  Y0+  Y2  1  0.92400000  0.20400000  0.92900000  1.0
  Y0+  Y3  1  0.07600000  0.79600000  0.92900000  1.0
  Y0+  Y4  1  0.20400000  0.92400000  0.42900000  1.0
  Y0+  Y5  1  0.79600000  0.07600000  0.42900000  1.0
  Y0+  Y6  1  0.20400000  0.07600000  0.92900000  1.0
  Y0+  Y7  1  0.79600000  0.92400000  0.92900000  1.0
  Y0+  Y8  1  0.92400000  0.79600000  0.57100000  1.0
  Y0+  Y9  1  0.07600000  0.20400000  0.57100000  1.0
  Y0+  Y10  1  0.07600000  0.79600000  0.07100000  1.0
  Y0+  Y11  1  0.92400000  0.20400000  0.07100000  1.0
  Y0+  Y12  1  0.79600000  0.07600000  0.57100000  1.0
  Y0+  Y13  1  0.20400000  0.92400000  0.57100000  1.0
  Y0+  Y14  1  0.79600000  0.92400000  0.07100000  1.0
  Y0+  Y15  1  0.20400000  0.07600000  0.07100000  1.0
  Y0+  Y16  1  0.57600000  0.70400000  0.92900000  1.0
  Y0+  Y17  1  0.42400000  0.29600000  0.92900000  1.0
  Y0+  Y18  1  0.42400000  0.70400000  0.42900000  1.0
  Y0+  Y19  1  0.57600000  0.29600000  0.42900000  1.0
  Y0+  Y20  1  0.70400000  0.42400000  0.92900000  1.0
  Y0+  Y21  1  0.29600000  0.57600000  0.92900000  1.0
  Y0+  Y22  1  0.70400000  0.57600000  0.42900000  1.0
  Y0+  Y23  1  0.29600000  0.42400000  0.42900000  1.0
  Y0+  Y24  1  0.42400000  0.29600000  0.07100000  1.0
  Y0+  Y25  1  0.57600000  0.70400000  0.07100000  1.0
  Y0+  Y26  1  0.57600000  0.29600000  0.57100000  1.0
  Y0+  Y27  1  0.42400000  0.70400000  0.57100000  1.0
  Y0+  Y28  1  0.29600000  0.57600000  0.07100000  1.0
  Y0+  Y29  1  0.70400000  0.42400000  0.07100000  1.0
  Y0+  Y30  1  0.29600000  0.42400000  0.57100000  1.0
  Y0+  Y31  1  0.70400000  0.57600000  0.57100000  1.0
  Y0+  Y32  1  0.21100000  0.08000000  0.30600000  1.0
  Y0+  Y33  1  0.78900000  0.92000000  0.30600000  1.0
  Y0+  Y34  1  0.78900000  0.08000000  0.80600000  1.0
  Y0+  Y35  1  0.21100000  0.92000000  0.80600000  1.0
  Y0+  Y36  1  0.08000000  0.78900000  0.30600000  1.0
  Y0+  Y37  1  0.92000000  0.21100000  0.30600000  1.0
  Y0+  Y38  1  0.08000000  0.21100000  0.80600000  1.0
  Y0+  Y39  1  0.92000000  0.78900000  0.80600000  1.0
  Y0+  Y40  1  0.78900000  0.92000000  0.69400000  1.0
  Y0+  Y41  1  0.21100000  0.08000000  0.69400000  1.0
  Y0+  Y42  1  0.21100000  0.92000000  0.19400000  1.0
  Y0+  Y43  1  0.78900000  0.08000000  0.19400000  1.0
  Y0+  Y44  1  0.92000000  0.21100000  0.69400000  1.0
  Y0+  Y45  1  0.08000000  0.78900000  0.69400000  1.0
  Y0+  Y46  1  0.92000000  0.78900000  0.19400000  1.0
  Y0+  Y47  1  0.08000000  0.21100000  0.19400000  1.0
  Y0+  Y48  1  0.71100000  0.58000000  0.80600000  1.0
  Y0+  Y49  1  0.28900000  0.42000000  0.80600000  1.0
  Y0+  Y50  1  0.28900000  0.58000000  0.30600000  1.0
  Y0+  Y51  1  0.71100000  0.42000000  0.30600000  1.0
  Y0+  Y52  1  0.58000000  0.28900000  0.80600000  1.0
  Y0+  Y53  1  0.42000000  0.71100000  0.80600000  1.0
  Y0+  Y54  1  0.58000000  0.71100000  0.30600000  1.0
  Y0+  Y55  1  0.42000000  0.28900000  0.30600000  1.0
  Y0+  Y56  1  0.28900000  0.42000000  0.19400000  1.0
  Y0+  Y57  1  0.71100000  0.58000000  0.19400000  1.0
  Y0+  Y58  1  0.71100000  0.42000000  0.69400000  1.0
  Y0+  Y59  1  0.28900000  0.58000000  0.69400000  1.0
  Y0+  Y60  1  0.42000000  0.71100000  0.19400000  1.0
  Y0+  Y61  1  0.58000000  0.28900000  0.19400000  1.0
  Y0+  Y62  1  0.42000000  0.28900000  0.69400000  1.0
  Y0+  Y63  1  0.58000000  0.71100000  0.69400000  1.0
  Y0+  Y64  1  0.84800000  0.34800000  0.50000000  1.0
  Y0+  Y65  1  0.15200000  0.65200000  0.50000000  1.0
  Y0+  Y66  1  0.15200000  0.34800000  0.00000000  1.0
  Y0+  Y67  1  0.84800000  0.65200000  0.00000000  1.0
  Y0+  Y68  1  0.34800000  0.15200000  0.50000000  1.0
  Y0+  Y69  1  0.65200000  0.84800000  0.50000000  1.0
  Y0+  Y70  1  0.34800000  0.84800000  0.00000000  1.0
  Y0+  Y71  1  0.65200000  0.15200000  0.00000000  1.0
  Y0+  Y72  1  0.50000000  0.00000000  0.38800000  1.0
  Y0+  Y73  1  0.50000000  0.00000000  0.88800000  1.0
  Y0+  Y74  1  0.00000000  0.50000000  0.38800000  1.0
  Y0+  Y75  1  0.00000000  0.50000000  0.88800000  1.0
  Y0+  Y76  1  0.50000000  0.00000000  0.61200000  1.0
  Y0+  Y77  1  0.50000000  0.00000000  0.11200000  1.0
  Y0+  Y78  1  0.00000000  0.50000000  0.61200000  1.0
  Y0+  Y79  1  0.00000000  0.50000000  0.11200000  1.0
  Y0+  Y80  1  0.50000000  0.00000000  0.25000000  1.0
  Y0+  Y81  1  0.50000000  0.00000000  0.75000000  1.0
  Y0+  Y82  1  0.00000000  0.50000000  0.25000000  1.0
  Y0+  Y83  1  0.00000000  0.50000000  0.75000000  1.0
  Ir0+  Ir84  1  0.82100000  0.32100000  0.39400000  1.0
  Ir0+  Ir85  1  0.17900000  0.67900000  0.39400000  1.0
  Ir0+  Ir86  1  0.17900000  0.32100000  0.89400000  1.0
  Ir0+  Ir87  1  0.82100000  0.67900000  0.89400000  1.0
  Ir0+  Ir88  1  0.32100000  0.17900000  0.39400000  1.0
  Ir0+  Ir89  1  0.67900000  0.82100000  0.39400000  1.0
  Ir0+  Ir90  1  0.32100000  0.82100000  0.89400000  1.0
  Ir0+  Ir91  1  0.67900000  0.17900000  0.89400000  1.0
  Ir0+  Ir92  1  0.17900000  0.67900000  0.60600000  1.0
  Ir0+  Ir93  1  0.82100000  0.32100000  0.60600000  1.0
  Ir0+  Ir94  1  0.82100000  0.67900000  0.10600000  1.0
  Ir0+  Ir95  1  0.17900000  0.32100000  0.10600000  1.0
  Ir0+  Ir96  1  0.67900000  0.82100000  0.60600000  1.0
  Ir0+  Ir97  1  0.32100000  0.17900000  0.60600000  1.0
  Ir0+  Ir98  1  0.67900000  0.17900000  0.10600000  1.0
  Ir0+  Ir99  1  0.32100000  0.82100000  0.10600000  1.0
  Ir0+  Ir100  1  0.65500000  0.15500000  0.31200000  1.0
  Ir0+  Ir101  1  0.34500000  0.84500000  0.31200000  1.0
  Ir0+  Ir102  1  0.34500000  0.15500000  0.81200000  1.0
  Ir0+  Ir103  1  0.65500000  0.84500000  0.81200000  1.0
  Ir0+  Ir104  1  0.15500000  0.34500000  0.31200000  1.0
  Ir0+  Ir105  1  0.84500000  0.65500000  0.31200000  1.0
  Ir0+  Ir106  1  0.15500000  0.65500000  0.81200000  1.0
  Ir0+  Ir107  1  0.84500000  0.34500000  0.81200000  1.0
  Ir0+  Ir108  1  0.34500000  0.84500000  0.68800000  1.0
  Ir0+  Ir109  1  0.65500000  0.15500000  0.68800000  1.0
  Ir0+  Ir110  1  0.65500000  0.84500000  0.18800000  1.0
  Ir0+  Ir111  1  0.34500000  0.15500000  0.18800000  1.0
  Ir0+  Ir112  1  0.84500000  0.65500000  0.68800000  1.0
  Ir0+  Ir113  1  0.15500000  0.34500000  0.68800000  1.0
  Ir0+  Ir114  1  0.84500000  0.34500000  0.18800000  1.0
  Ir0+  Ir115  1  0.15500000  0.65500000  0.18800000  1.0
  Ir0+  Ir116  1  0.59600000  0.09600000  0.50000000  1.0
  Ir0+  Ir117  1  0.40400000  0.90400000  0.50000000  1.0
  Ir0+  Ir118  1  0.40400000  0.09600000  0.00000000  1.0
  Ir0+  Ir119  1  0.59600000  0.90400000  0.00000000  1.0
  Ir0+  Ir120  1  0.09600000  0.40400000  0.50000000  1.0
  Ir0+  Ir121  1  0.90400000  0.59600000  0.50000000  1.0
  Ir0+  Ir122  1  0.09600000  0.59600000  0.00000000  1.0
  Ir0+  Ir123  1  0.90400000  0.40400000  0.00000000  1.0
  Ir0+  Ir124  1  0.00000000  0.00000000  0.36600000  1.0
  Ir0+  Ir125  1  0.00000000  0.00000000  0.86600000  1.0
  Ir0+  Ir126  1  0.00000000  0.00000000  0.63400000  1.0
  Ir0+  Ir127  1  0.00000000  0.00000000  0.13400000  1.0
  Ir0+  Ir128  1  0.50000000  0.50000000  0.86600000  1.0
  Ir0+  Ir129  1  0.50000000  0.50000000  0.36600000  1.0
  Ir0+  Ir130  1  0.50000000  0.50000000  0.13400000  1.0
  Ir0+  Ir131  1  0.50000000  0.50000000  0.63400000  1.0
  Ir0+  Ir132  1  0.00000000  0.00000000  0.50000000  1.0
  Ir0+  Ir133  1  0.00000000  0.00000000  0.00000000  1.0
  Ir0+  Ir134  1  0.50000000  0.50000000  0.00000000  1.0
  Ir0+  Ir135  1  0.50000000  0.50000000  0.50000000  1.0
  Ir0+  Ir136  1  0.00000000  0.00000000  0.25000000  1.0
  Ir0+  Ir137  1  0.00000000  0.00000000  0.75000000  1.0
  Ir0+  Ir138  1  0.50000000  0.50000000  0.75000000  1.0
  Ir0+  Ir139  1  0.50000000  0.50000000  0.25000000  1.0
