# generated using pymatgen
data_YIr3
_symmetry_space_group_name_H-M   'P 1'
_cell_length_a   5.27900000
_cell_length_b   5.27900000
_cell_length_c   25.87800000
_cell_angle_alpha   90.00000000
_cell_angle_beta   90.00000000
_cell_angle_gamma   120.00000000
_symmetry_Int_Tables_number   1
_chemical_formula_structural   YIr3
_chemical_formula_sum   'Y9 Ir27'
_cell_volume   624.54633511
_cell_formula_units_Z   9
loop_
 _symmetry_equiv_pos_site_id
 _symmetry_equiv_pos_as_xyz
  1  'x, y, z'
loop_
 _atom_type_symbol
 _atom_type_oxidation_number
  Y0+  0.0
  Ir0+  0.0
loop_
 _atom_site_type_symbol
 _atom_site_label
 _atom_site_symmetry_multiplicity
 _atom_site_fract_x
 _atom_site_fract_y
 _atom_site_fract_z
 _atom_site_occupancy
  Y0+  Y0  1  0.00000000  0.00000000  0.85900000  1.0
  Y0+  Y1  1  0.00000000  0.00000000  0.14100000  1.0
  Y0+  Y2  1  0.66666667  0.33333333  0.19233333  1.0
  Y0+  Y3  1  0.66666667  0.33333333  0.47433333  1.0
  Y0+  Y4  1  0.33333333  0.66666667  0.52566667  1.0
  Y0+  Y5  1  0.33333333  0.66666667  0.80766667  1.0
  Y0+  Y6  1  0.00000000  0.00000000  0.00000000  1.0
  Y0+  Y7  1  0.66666667  0.33333333  0.33333333  1.0
  Y0+  Y8  1  0.33333333  0.66666667  0.66666667  1.0
  Ir0+  Ir9  1  0.00800000  0.50400000  0.91800000  1.0
  Ir0+  Ir10  1  0.49600000  0.99200000  0.91800000  1.0
  Ir0+  Ir11  1  0.49600000  0.50400000  0.91800000  1.0
  Ir0+  Ir12  1  0.99200000  0.49600000  0.08200000  1.0
  Ir0+  Ir13  1  0.50400000  0.00800000  0.08200000  1.0
  Ir0+  Ir14  1  0.50400000  0.49600000  0.08200000  1.0
  Ir0+  Ir15  1  0.67466667  0.83733333  0.25133333  1.0
  Ir0+  Ir16  1  0.16266667  0.32533333  0.25133333  1.0
  Ir0+  Ir17  1  0.16266667  0.83733333  0.25133333  1.0
  Ir0+  Ir18  1  0.65866667  0.82933333  0.41533333  1.0
  Ir0+  Ir19  1  0.17066667  0.34133333  0.41533333  1.0
  Ir0+  Ir20  1  0.17066667  0.82933333  0.41533333  1.0
  Ir0+  Ir21  1  0.34133333  0.17066667  0.58466667  1.0
  Ir0+  Ir22  1  0.82933333  0.65866667  0.58466667  1.0
  Ir0+  Ir23  1  0.82933333  0.17066667  0.58466667  1.0
  Ir0+  Ir24  1  0.32533333  0.16266667  0.74866667  1.0
  Ir0+  Ir25  1  0.83733333  0.67466667  0.74866667  1.0
  Ir0+  Ir26  1  0.83733333  0.16266667  0.74866667  1.0
  Ir0+  Ir27  1  0.00000000  0.00000000  0.66700000  1.0
  Ir0+  Ir28  1  0.00000000  0.00000000  0.33300000  1.0
  Ir0+  Ir29  1  0.66666667  0.33333333  0.00033333  1.0
  Ir0+  Ir30  1  0.66666667  0.33333333  0.66633333  1.0
  Ir0+  Ir31  1  0.33333333  0.66666667  0.33366667  1.0
  Ir0+  Ir32  1  0.33333333  0.66666667  0.99966667  1.0
  Ir0+  Ir33  1  0.00000000  0.00000000  0.50000000  1.0
  Ir0+  Ir34  1  0.66666667  0.33333333  0.83333333  1.0
  Ir0+  Ir35  1  0.33333333  0.66666667  0.16666667  1.0
