# generated using pymatgen
data_Zr2Ir
_symmetry_space_group_name_H-M   'P 1'
_cell_length_a   6.51000000
_cell_length_b   6.51000000
_cell_length_c   5.62000000
_cell_angle_alpha   90.00000000
_cell_angle_beta   90.00000000
_cell_angle_gamma   90.00000000
_symmetry_Int_Tables_number   1
_chemical_formula_structural   Zr2Ir
_chemical_formula_sum   'Zr8 Ir4'
_cell_volume   238.17616200
_cell_formula_units_Z   4
loop_
 _symmetry_equiv_pos_site_id
 _symmetry_equiv_pos_as_xyz
  1  'x, y, z'
loop_
 _atom_type_symbol
 _atom_type_oxidation_number
  Zr0+  0.0
  Ir0+  0.0
loop_
 _atom_site_type_symbol
 _atom_site_label
 _atom_site_symmetry_multiplicity
 _atom_site_fract_x
 _atom_site_fract_y
 _atom_site_fract_z
 _atom_site_occupancy
  Zr0+  Zr0  1  0.66000000  0.16000000  0.50000000  1.0
  Zr0+  Zr1  1  0.34000000  0.84000000  0.50000000  1.0
  Zr0+  Zr2  1  0.34000000  0.16000000  0.00000000  1.0
  Zr0+  Zr3  1  0.66000000  0.84000000  0.00000000  1.0
  Zr0+  Zr4  1  0.16000000  0.34000000  0.50000000  1.0
  Zr0+  Zr5  1  0.84000000  0.66000000  0.50000000  1.0
  Zr0+  Zr6  1  0.16000000  0.66000000  0.00000000  1.0
  Zr0+  Zr7  1  0.84000000  0.34000000  0.00000000  1.0
  Ir0+  Ir8  1  0.00000000  0.00000000  0.25000000  1.0
  Ir0+  Ir9  1  0.00000000  0.00000000  0.75000000  1.0
  Ir0+  Ir10  1  0.50000000  0.50000000  0.75000000  1.0
  Ir0+  Ir11  1  0.50000000  0.50000000  0.25000000  1.0
