# generated using pymatgen
data_La(Mo3S4)2
_symmetry_space_group_name_H-M   'P 1'
_cell_length_a   9.12000000
_cell_length_b   9.12000000
_cell_length_c   11.48000000
_cell_angle_alpha   90.00000000
_cell_angle_beta   90.00000000
_cell_angle_gamma   120.00000000
_symmetry_Int_Tables_number   1
_chemical_formula_structural   La(Mo3S4)2
_chemical_formula_sum   'La3 Mo18 S24'
_cell_volume   826.91752560
_cell_formula_units_Z   3
loop_
 _symmetry_equiv_pos_site_id
 _symmetry_equiv_pos_as_xyz
  1  'x, y, z'
loop_
 _atom_type_symbol
 _atom_type_oxidation_number
  La3+  3.0
  Mo2.17+  2.17
  S2-  -2.0
loop_
 _atom_site_type_symbol
 _atom_site_label
 _atom_site_symmetry_multiplicity
 _atom_site_fract_x
 _atom_site_fract_y
 _atom_site_fract_z
 _atom_site_occupancy
  La3+  La0  1  0.00000000  0.00000000  0.00000000  1.0
  La3+  La1  1  0.66666667  0.33333333  0.33333333  1.0
  La3+  La2  1  0.33333333  0.66666667  0.66666667  1.0
  Mo2.17+  Mo3  1  0.98500000  0.82500000  0.59800000  1.0
  Mo2.17+  Mo4  1  0.84000000  0.01500000  0.59800000  1.0
  Mo2.17+  Mo5  1  0.17500000  0.16000000  0.59800000  1.0
  Mo2.17+  Mo6  1  0.01500000  0.17500000  0.40200000  1.0
  Mo2.17+  Mo7  1  0.16000000  0.98500000  0.40200000  1.0
  Mo2.17+  Mo8  1  0.82500000  0.84000000  0.40200000  1.0
  Mo2.17+  Mo9  1  0.65166667  0.15833333  0.93133333  1.0
  Mo2.17+  Mo10  1  0.50666667  0.34833333  0.93133333  1.0
  Mo2.17+  Mo11  1  0.84166667  0.49333333  0.93133333  1.0
  Mo2.17+  Mo12  1  0.68166667  0.50833333  0.73533333  1.0
  Mo2.17+  Mo13  1  0.82666667  0.31833333  0.73533333  1.0
  Mo2.17+  Mo14  1  0.49166667  0.17333333  0.73533333  1.0
  Mo2.17+  Mo15  1  0.31833333  0.49166667  0.26466667  1.0
  Mo2.17+  Mo16  1  0.17333333  0.68166667  0.26466667  1.0
  Mo2.17+  Mo17  1  0.50833333  0.82666667  0.26466667  1.0
  Mo2.17+  Mo18  1  0.34833333  0.84166667  0.06866667  1.0
  Mo2.17+  Mo19  1  0.49333333  0.65166667  0.06866667  1.0
  Mo2.17+  Mo20  1  0.15833333  0.50666667  0.06866667  1.0
  S2-  S21  1  0.00000000  0.00000000  0.75600000  1.0
  S2-  S22  1  0.00000000  0.00000000  0.24400000  1.0
  S2-  S23  1  0.66666667  0.33333333  0.08933333  1.0
  S2-  S24  1  0.66666667  0.33333333  0.57733333  1.0
  S2-  S25  1  0.33333333  0.66666667  0.42266667  1.0
  S2-  S26  1  0.33333333  0.66666667  0.91066667  1.0
  S2-  S27  1  0.24700000  0.95500000  0.58400000  1.0
  S2-  S28  1  0.70800000  0.75300000  0.58400000  1.0
  S2-  S29  1  0.04500000  0.29200000  0.58400000  1.0
  S2-  S30  1  0.75300000  0.04500000  0.41600000  1.0
  S2-  S31  1  0.29200000  0.24700000  0.41600000  1.0
  S2-  S32  1  0.95500000  0.70800000  0.41600000  1.0
  S2-  S33  1  0.91366667  0.28833333  0.91733333  1.0
  S2-  S34  1  0.37466667  0.08633333  0.91733333  1.0
  S2-  S35  1  0.71166667  0.62533333  0.91733333  1.0
  S2-  S36  1  0.41966667  0.37833333  0.74933333  1.0
  S2-  S37  1  0.95866667  0.58033333  0.74933333  1.0
  S2-  S38  1  0.62166667  0.04133333  0.74933333  1.0
  S2-  S39  1  0.58033333  0.62166667  0.25066667  1.0
  S2-  S40  1  0.04133333  0.41966667  0.25066667  1.0
  S2-  S41  1  0.37833333  0.95866667  0.25066667  1.0
  S2-  S42  1  0.08633333  0.71166667  0.08266667  1.0
  S2-  S43  1  0.62533333  0.91366667  0.08266667  1.0
  S2-  S44  1  0.28833333  0.37466667  0.08266667  1.0
