# generated using pymatgen
data_La3Te4
_symmetry_space_group_name_H-M   'P 1'
_cell_length_a   9.61900000
_cell_length_b   9.61900000
_cell_length_c   9.61900000
_cell_angle_alpha   90.00000000
_cell_angle_beta   90.00000000
_cell_angle_gamma   90.00000000
_symmetry_Int_Tables_number   1
_chemical_formula_structural   La3Te4
_chemical_formula_sum   'La12 Te16'
_cell_volume   889.99952366
_cell_formula_units_Z   4
loop_
 _symmetry_equiv_pos_site_id
 _symmetry_equiv_pos_as_xyz
  1  'x, y, z'
loop_
 _atom_type_symbol
 _atom_type_oxidation_number
  La0+  0.0
  Te0+  0.0
loop_
 _atom_site_type_symbol
 _atom_site_label
 _atom_site_symmetry_multiplicity
 _atom_site_fract_x
 _atom_site_fract_y
 _atom_site_fract_z
 _atom_site_occupancy
  La0+  La0  1  0.25000000  0.37500000  0.00000000  1.0
  La0+  La1  1  0.75000000  0.87500000  0.50000000  1.0
  La0+  La2  1  0.75000000  0.12500000  0.00000000  1.0
  La0+  La3  1  0.25000000  0.62500000  0.50000000  1.0
  La0+  La4  1  0.00000000  0.25000000  0.37500000  1.0
  La0+  La5  1  0.50000000  0.75000000  0.87500000  1.0
  La0+  La6  1  0.00000000  0.75000000  0.12500000  1.0
  La0+  La7  1  0.50000000  0.25000000  0.62500000  1.0
  La0+  La8  1  0.37500000  0.00000000  0.25000000  1.0
  La0+  La9  1  0.87500000  0.50000000  0.75000000  1.0
  La0+  La10  1  0.12500000  0.00000000  0.75000000  1.0
  La0+  La11  1  0.62500000  0.50000000  0.25000000  1.0
  Te0+  Te12  1  0.16700000  0.66700000  0.83300000  1.0
  Te0+  Te13  1  0.83300000  0.16700000  0.66700000  1.0
  Te0+  Te14  1  0.66700000  0.83300000  0.16700000  1.0
  Te0+  Te15  1  0.33300000  0.33300000  0.33300000  1.0
  Te0+  Te16  1  0.58300000  0.41700000  0.91700000  1.0
  Te0+  Te17  1  0.41700000  0.91700000  0.58300000  1.0
  Te0+  Te18  1  0.91700000  0.58300000  0.41700000  1.0
  Te0+  Te19  1  0.08300000  0.08300000  0.08300000  1.0
  Te0+  Te20  1  0.66700000  0.16700000  0.33300000  1.0
  Te0+  Te21  1  0.33300000  0.66700000  0.16700000  1.0
  Te0+  Te22  1  0.16700000  0.33300000  0.66700000  1.0
  Te0+  Te23  1  0.83300000  0.83300000  0.83300000  1.0
  Te0+  Te24  1  0.08300000  0.91700000  0.41700000  1.0
  Te0+  Te25  1  0.91700000  0.41700000  0.08300000  1.0
  Te0+  Te26  1  0.41700000  0.08300000  0.91700000  1.0
  Te0+  Te27  1  0.58300000  0.58300000  0.58300000  1.0
