# generated using pymatgen
data_Mo6PbSe8
_symmetry_space_group_name_H-M   'P 1'
_cell_length_a   9.53200000
_cell_length_b   9.53200000
_cell_length_c   11.96000000
_cell_angle_alpha   90.00000000
_cell_angle_beta   90.00000000
_cell_angle_gamma   120.00000000
_symmetry_Int_Tables_number   1
_chemical_formula_structural   Mo6PbSe8
_chemical_formula_sum   'Mo18 Pb3 Se24'
_cell_volume   941.08722645
_cell_formula_units_Z   3
loop_
 _symmetry_equiv_pos_site_id
 _symmetry_equiv_pos_as_xyz
  1  'x, y, z'
loop_
 _atom_type_symbol
 _atom_type_oxidation_number
  Mo2.33+  2.33
  Pb2+  2.0
  Se2-  -2.0
loop_
 _atom_site_type_symbol
 _atom_site_label
 _atom_site_symmetry_multiplicity
 _atom_site_fract_x
 _atom_site_fract_y
 _atom_site_fract_z
 _atom_site_occupancy
  Mo2.33+  Mo0  1  0.98500000  0.15500000  0.59400000  1.0
  Mo2.33+  Mo1  1  0.17000000  0.01500000  0.59400000  1.0
  Mo2.33+  Mo2  1  0.84500000  0.83000000  0.59400000  1.0
  Mo2.33+  Mo3  1  0.01500000  0.84500000  0.40600000  1.0
  Mo2.33+  Mo4  1  0.83000000  0.98500000  0.40600000  1.0
  Mo2.33+  Mo5  1  0.15500000  0.17000000  0.40600000  1.0
  Mo2.33+  Mo6  1  0.65166667  0.48833333  0.92733333  1.0
  Mo2.33+  Mo7  1  0.83666667  0.34833333  0.92733333  1.0
  Mo2.33+  Mo8  1  0.51166667  0.16333333  0.92733333  1.0
  Mo2.33+  Mo9  1  0.68166667  0.17833333  0.73933333  1.0
  Mo2.33+  Mo10  1  0.49666667  0.31833333  0.73933333  1.0
  Mo2.33+  Mo11  1  0.82166667  0.50333333  0.73933333  1.0
  Mo2.33+  Mo12  1  0.31833333  0.82166667  0.26066667  1.0
  Mo2.33+  Mo13  1  0.50333333  0.68166667  0.26066667  1.0
  Mo2.33+  Mo14  1  0.17833333  0.49666667  0.26066667  1.0
  Mo2.33+  Mo15  1  0.34833333  0.51166667  0.07266667  1.0
  Mo2.33+  Mo16  1  0.16333333  0.65166667  0.07266667  1.0
  Mo2.33+  Mo17  1  0.48833333  0.83666667  0.07266667  1.0
  Pb2+  Pb18  1  0.00000000  0.00000000  0.00000000  1.0
  Pb2+  Pb19  1  0.66666667  0.33333333  0.33333333  1.0
  Pb2+  Pb20  1  0.33333333  0.66666667  0.66666667  1.0
  Se2-  Se21  1  0.00000000  0.00000000  0.75800000  1.0
  Se2-  Se22  1  0.00000000  0.00000000  0.24200000  1.0
  Se2-  Se23  1  0.66666667  0.33333333  0.09133333  1.0
  Se2-  Se24  1  0.66666667  0.33333333  0.57533333  1.0
  Se2-  Se25  1  0.33333333  0.66666667  0.42466667  1.0
  Se2-  Se26  1  0.33333333  0.66666667  0.90866667  1.0
  Se2-  Se27  1  0.70200000  0.03700000  0.91700000  1.0
  Se2-  Se28  1  0.33500000  0.29800000  0.91700000  1.0
  Se2-  Se29  1  0.96300000  0.66500000  0.91700000  1.0
  Se2-  Se30  1  0.29800000  0.96300000  0.08300000  1.0
  Se2-  Se31  1  0.66500000  0.70200000  0.08300000  1.0
  Se2-  Se32  1  0.03700000  0.33500000  0.08300000  1.0
  Se2-  Se33  1  0.36866667  0.37033333  0.25033333  1.0
  Se2-  Se34  1  0.00166667  0.63133333  0.25033333  1.0
  Se2-  Se35  1  0.62966667  0.99833333  0.25033333  1.0
  Se2-  Se36  1  0.96466667  0.29633333  0.41633333  1.0
  Se2-  Se37  1  0.33166667  0.03533333  0.41633333  1.0
  Se2-  Se38  1  0.70366667  0.66833333  0.41633333  1.0
  Se2-  Se39  1  0.03533333  0.70366667  0.58366667  1.0
  Se2-  Se40  1  0.66833333  0.96466667  0.58366667  1.0
  Se2-  Se41  1  0.29633333  0.33166667  0.58366667  1.0
  Se2-  Se42  1  0.63133333  0.62966667  0.74966667  1.0
  Se2-  Se43  1  0.99833333  0.36866667  0.74966667  1.0
  Se2-  Se44  1  0.37033333  0.00166667  0.74966667  1.0
