# generated using pymatgen
data_Y(Mo3Se4)2
_symmetry_space_group_name_H-M   'P 1'
_cell_length_a   9.44000000
_cell_length_b   9.44000000
_cell_length_c   11.72000000
_cell_angle_alpha   90.00000000
_cell_angle_beta   90.00000000
_cell_angle_gamma   120.00000000
_symmetry_Int_Tables_number   1
_chemical_formula_structural   Y(Mo3Se4)2
_chemical_formula_sum   'Y3 Mo18 Se24'
_cell_volume   904.48679747
_cell_formula_units_Z   3
loop_
 _symmetry_equiv_pos_site_id
 _symmetry_equiv_pos_as_xyz
  1  'x, y, z'
loop_
 _atom_type_symbol
 _atom_type_oxidation_number
  Y3+  3.0
  Mo2.17+  2.17
  Se2-  -2.0
loop_
 _atom_site_type_symbol
 _atom_site_label
 _atom_site_symmetry_multiplicity
 _atom_site_fract_x
 _atom_site_fract_y
 _atom_site_fract_z
 _atom_site_occupancy
  Y3+  Y0  1  0.00000000  0.00000000  0.00000000  1.0
  Y3+  Y1  1  0.66666667  0.33333333  0.33333333  1.0
  Y3+  Y2  1  0.33333333  0.66666667  0.66666667  1.0
  Mo2.17+  Mo3  1  0.98200000  0.15400000  0.59500000  1.0
  Mo2.17+  Mo4  1  0.17200000  0.01800000  0.59500000  1.0
  Mo2.17+  Mo5  1  0.84600000  0.82800000  0.59500000  1.0
  Mo2.17+  Mo6  1  0.01800000  0.84600000  0.40500000  1.0
  Mo2.17+  Mo7  1  0.82800000  0.98200000  0.40500000  1.0
  Mo2.17+  Mo8  1  0.15400000  0.17200000  0.40500000  1.0
  Mo2.17+  Mo9  1  0.64866667  0.48733333  0.92833333  1.0
  Mo2.17+  Mo10  1  0.83866667  0.35133333  0.92833333  1.0
  Mo2.17+  Mo11  1  0.51266667  0.16133333  0.92833333  1.0
  Mo2.17+  Mo12  1  0.68466667  0.17933333  0.73833333  1.0
  Mo2.17+  Mo13  1  0.49466667  0.31533333  0.73833333  1.0
  Mo2.17+  Mo14  1  0.82066667  0.50533333  0.73833333  1.0
  Mo2.17+  Mo15  1  0.31533333  0.82066667  0.26166667  1.0
  Mo2.17+  Mo16  1  0.50533333  0.68466667  0.26166667  1.0
  Mo2.17+  Mo17  1  0.17933333  0.49466667  0.26166667  1.0
  Mo2.17+  Mo18  1  0.35133333  0.51266667  0.07166667  1.0
  Mo2.17+  Mo19  1  0.16133333  0.64866667  0.07166667  1.0
  Mo2.17+  Mo20  1  0.48733333  0.83866667  0.07166667  1.0
  Se2-  Se21  1  0.00000000  0.00000000  0.76200000  1.0
  Se2-  Se22  1  0.00000000  0.00000000  0.23800000  1.0
  Se2-  Se23  1  0.66666667  0.33333333  0.09533333  1.0
  Se2-  Se24  1  0.66666667  0.33333333  0.57133333  1.0
  Se2-  Se25  1  0.33333333  0.66666667  0.42866667  1.0
  Se2-  Se26  1  0.33333333  0.66666667  0.90466667  1.0
  Se2-  Se27  1  0.71000000  0.03800000  0.91600000  1.0
  Se2-  Se28  1  0.32800000  0.29000000  0.91600000  1.0
  Se2-  Se29  1  0.96200000  0.67200000  0.91600000  1.0
  Se2-  Se30  1  0.29000000  0.96200000  0.08400000  1.0
  Se2-  Se31  1  0.67200000  0.71000000  0.08400000  1.0
  Se2-  Se32  1  0.03800000  0.32800000  0.08400000  1.0
  Se2-  Se33  1  0.37666667  0.37133333  0.24933333  1.0
  Se2-  Se34  1  0.99466667  0.62333333  0.24933333  1.0
  Se2-  Se35  1  0.62866667  0.00533333  0.24933333  1.0
  Se2-  Se36  1  0.95666667  0.29533333  0.41733333  1.0
  Se2-  Se37  1  0.33866667  0.04333333  0.41733333  1.0
  Se2-  Se38  1  0.70466667  0.66133333  0.41733333  1.0
  Se2-  Se39  1  0.04333333  0.70466667  0.58266667  1.0
  Se2-  Se40  1  0.66133333  0.95666667  0.58266667  1.0
  Se2-  Se41  1  0.29533333  0.33866667  0.58266667  1.0
  Se2-  Se42  1  0.62333333  0.62866667  0.75066667  1.0
  Se2-  Se43  1  0.00533333  0.37666667  0.75066667  1.0
  Se2-  Se44  1  0.37133333  0.99466667  0.75066667  1.0
