# generated using pymatgen
data_Br
_symmetry_space_group_name_H-M   'P 1'
_cell_length_a   6.72650000
_cell_length_b   4.64510000
_cell_length_c   8.70230000
_cell_angle_alpha   90.00000000
_cell_angle_beta   90.00000000
_cell_angle_gamma   90.00000000
_symmetry_Int_Tables_number   1
_chemical_formula_structural   Br
_chemical_formula_sum   Br8
_cell_volume   271.90567091
_cell_formula_units_Z   8
loop_
 _symmetry_equiv_pos_site_id
 _symmetry_equiv_pos_as_xyz
  1  'x, y, z'
loop_
 _atom_type_symbol
 _atom_type_oxidation_number
  Br0+  0.0
loop_
 _atom_site_type_symbol
 _atom_site_label
 _atom_site_symmetry_multiplicity
 _atom_site_fract_x
 _atom_site_fract_y
 _atom_site_fract_z
 _atom_site_occupancy
  Br0+  Br0  1  0.00000000  0.36510000  0.60990000  1.0
  Br0+  Br1  1  0.00000000  0.63490000  0.39010000  1.0
  Br0+  Br2  1  0.00000000  0.13490000  0.10990000  1.0
  Br0+  Br3  1  0.00000000  0.86510000  0.89010000  1.0
  Br0+  Br4  1  0.50000000  0.86510000  0.60990000  1.0
  Br0+  Br5  1  0.50000000  0.13490000  0.39010000  1.0
  Br0+  Br6  1  0.50000000  0.63490000  0.10990000  1.0
  Br0+  Br7  1  0.50000000  0.36510000  0.89010000  1.0
