# generated using pymatgen
data_NbPRh
_symmetry_space_group_name_H-M   'P 1'
_cell_length_a   6.30600000
_cell_length_b   3.73700000
_cell_length_c   7.18700000
_cell_angle_alpha   90.00000000
_cell_angle_beta   90.00000000
_cell_angle_gamma   90.00000000
_symmetry_Int_Tables_number   1
_chemical_formula_structural   NbPRh
_chemical_formula_sum   'Nb4 P4 Rh4'
_cell_volume   169.36540661
_cell_formula_units_Z   4
loop_
 _symmetry_equiv_pos_site_id
 _symmetry_equiv_pos_as_xyz
  1  'x, y, z'
loop_
 _atom_type_symbol
 _atom_type_oxidation_number
  Nb0+  0.0
  P0+  0.0
  Rh0+  0.0
loop_
 _atom_site_type_symbol
 _atom_site_label
 _atom_site_symmetry_multiplicity
 _atom_site_fract_x
 _atom_site_fract_y
 _atom_site_fract_z
 _atom_site_occupancy
  Nb0+  Nb0  1  0.52600000  0.25000000  0.32600000  1.0
  Nb0+  Nb1  1  0.02600000  0.25000000  0.17400000  1.0
  Nb0+  Nb2  1  0.47400000  0.75000000  0.67400000  1.0
  Nb0+  Nb3  1  0.97400000  0.75000000  0.82600000  1.0
  P0+  P4  1  0.26900000  0.25000000  0.87200000  1.0
  P0+  P5  1  0.76900000  0.25000000  0.62800000  1.0
  P0+  P6  1  0.73100000  0.75000000  0.12800000  1.0
  P0+  P7  1  0.23100000  0.75000000  0.37200000  1.0
  Rh0+  Rh8  1  0.64600000  0.25000000  0.93800000  1.0
  Rh0+  Rh9  1  0.14600000  0.25000000  0.56200000  1.0
  Rh0+  Rh10  1  0.35400000  0.75000000  0.06200000  1.0
  Rh0+  Rh11  1  0.85400000  0.75000000  0.43800000  1.0
