# generated using pymatgen
data_Nb6Sn5
_symmetry_space_group_name_H-M   'P 1'
_cell_length_a   16.84300000
_cell_length_b   9.19900000
_cell_length_c   5.65600000
_cell_angle_alpha   90.00000000
_cell_angle_beta   90.00000000
_cell_angle_gamma   90.00000000
_symmetry_Int_Tables_number   1
_chemical_formula_structural   Nb6Sn5
_chemical_formula_sum   'Nb24 Sn20'
_cell_volume   876.33360959
_cell_formula_units_Z   4
loop_
 _symmetry_equiv_pos_site_id
 _symmetry_equiv_pos_as_xyz
  1  'x, y, z'
loop_
 _atom_type_symbol
 _atom_type_oxidation_number
  Nb0+  0.0
  Sn0+  0.0
loop_
 _atom_site_type_symbol
 _atom_site_label
 _atom_site_symmetry_multiplicity
 _atom_site_fract_x
 _atom_site_fract_y
 _atom_site_fract_z
 _atom_site_occupancy
  Nb0+  Nb0  1  0.34700000  0.00000000  0.00000000  1.0
  Nb0+  Nb1  1  0.65300000  0.00000000  0.00000000  1.0
  Nb0+  Nb2  1  0.84700000  0.50000000  0.50000000  1.0
  Nb0+  Nb3  1  0.15300000  0.50000000  0.50000000  1.0
  Nb0+  Nb4  1  0.00000000  0.00000000  0.23600000  1.0
  Nb0+  Nb5  1  0.00000000  0.00000000  0.76400000  1.0
  Nb0+  Nb6  1  0.50000000  0.50000000  0.73600000  1.0
  Nb0+  Nb7  1  0.50000000  0.50000000  0.26400000  1.0
  Nb0+  Nb8  1  0.25000000  0.25000000  0.75000000  1.0
  Nb0+  Nb9  1  0.25000000  0.75000000  0.25000000  1.0
  Nb0+  Nb10  1  0.75000000  0.25000000  0.25000000  1.0
  Nb0+  Nb11  1  0.75000000  0.75000000  0.75000000  1.0
  Nb0+  Nb12  1  0.75000000  0.75000000  0.25000000  1.0
  Nb0+  Nb13  1  0.75000000  0.25000000  0.75000000  1.0
  Nb0+  Nb14  1  0.25000000  0.75000000  0.75000000  1.0
  Nb0+  Nb15  1  0.25000000  0.25000000  0.25000000  1.0
  Nb0+  Nb16  1  0.08500000  0.27300000  0.00000000  1.0
  Nb0+  Nb17  1  0.08500000  0.72700000  0.00000000  1.0
  Nb0+  Nb18  1  0.91500000  0.27300000  0.00000000  1.0
  Nb0+  Nb19  1  0.91500000  0.72700000  0.00000000  1.0
  Nb0+  Nb20  1  0.58500000  0.77300000  0.50000000  1.0
  Nb0+  Nb21  1  0.58500000  0.22700000  0.50000000  1.0
  Nb0+  Nb22  1  0.41500000  0.77300000  0.50000000  1.0
  Nb0+  Nb23  1  0.41500000  0.22700000  0.50000000  1.0
  Sn0+  Sn24  1  0.16800000  0.00000000  0.00000000  1.0
  Sn0+  Sn25  1  0.83200000  0.00000000  0.00000000  1.0
  Sn0+  Sn26  1  0.66800000  0.50000000  0.50000000  1.0
  Sn0+  Sn27  1  0.33200000  0.50000000  0.50000000  1.0
  Sn0+  Sn28  1  0.20600000  0.50000000  0.00000000  1.0
  Sn0+  Sn29  1  0.79400000  0.50000000  0.00000000  1.0
  Sn0+  Sn30  1  0.70600000  0.00000000  0.50000000  1.0
  Sn0+  Sn31  1  0.29400000  0.00000000  0.50000000  1.0
  Sn0+  Sn32  1  0.50000000  0.00000000  0.75600000  1.0
  Sn0+  Sn33  1  0.50000000  0.00000000  0.24400000  1.0
  Sn0+  Sn34  1  0.00000000  0.50000000  0.25600000  1.0
  Sn0+  Sn35  1  0.00000000  0.50000000  0.74400000  1.0
  Sn0+  Sn36  1  0.39600000  0.30700000  0.00000000  1.0
  Sn0+  Sn37  1  0.39600000  0.69300000  0.00000000  1.0
  Sn0+  Sn38  1  0.60400000  0.30700000  0.00000000  1.0
  Sn0+  Sn39  1  0.60400000  0.69300000  0.00000000  1.0
  Sn0+  Sn40  1  0.89600000  0.80700000  0.50000000  1.0
  Sn0+  Sn41  1  0.89600000  0.19300000  0.50000000  1.0
  Sn0+  Sn42  1  0.10400000  0.80700000  0.50000000  1.0
  Sn0+  Sn43  1  0.10400000  0.19300000  0.50000000  1.0
