# generated using pymatgen
data_NbSn2
_symmetry_space_group_name_H-M   'P 1'
_cell_length_a   9.85200000
_cell_length_b   5.64500000
_cell_length_c   19.12600000
_cell_angle_alpha   90.00000000
_cell_angle_beta   90.00000000
_cell_angle_gamma   90.00000000
_symmetry_Int_Tables_number   1
_chemical_formula_structural   NbSn2
_chemical_formula_sum   'Nb16 Sn32'
_cell_volume   1063.68369204
_cell_formula_units_Z   16
loop_
 _symmetry_equiv_pos_site_id
 _symmetry_equiv_pos_as_xyz
  1  'x, y, z'
loop_
 _atom_type_symbol
 _atom_type_oxidation_number
  Nb0+  0.0
  Sn0+  0.0
loop_
 _atom_site_type_symbol
 _atom_site_label
 _atom_site_symmetry_multiplicity
 _atom_site_fract_x
 _atom_site_fract_y
 _atom_site_fract_z
 _atom_site_occupancy
  Nb0+  Nb0  1  0.87500000  0.87500000  0.50200000  1.0
  Nb0+  Nb1  1  0.87500000  0.87500000  0.24800000  1.0
  Nb0+  Nb2  1  0.12500000  0.12500000  0.49800000  1.0
  Nb0+  Nb3  1  0.12500000  0.12500000  0.75200000  1.0
  Nb0+  Nb4  1  0.87500000  0.37500000  0.00200000  1.0
  Nb0+  Nb5  1  0.87500000  0.37500000  0.74800000  1.0
  Nb0+  Nb6  1  0.12500000  0.62500000  0.99800000  1.0
  Nb0+  Nb7  1  0.12500000  0.62500000  0.25200000  1.0
  Nb0+  Nb8  1  0.37500000  0.87500000  0.00200000  1.0
  Nb0+  Nb9  1  0.37500000  0.87500000  0.74800000  1.0
  Nb0+  Nb10  1  0.62500000  0.12500000  0.99800000  1.0
  Nb0+  Nb11  1  0.62500000  0.12500000  0.25200000  1.0
  Nb0+  Nb12  1  0.37500000  0.37500000  0.50200000  1.0
  Nb0+  Nb13  1  0.37500000  0.37500000  0.24800000  1.0
  Nb0+  Nb14  1  0.62500000  0.62500000  0.49800000  1.0
  Nb0+  Nb15  1  0.62500000  0.62500000  0.75200000  1.0
  Sn0+  Sn16  1  0.20900000  0.87500000  0.87500000  1.0
  Sn0+  Sn17  1  0.54100000  0.87500000  0.87500000  1.0
  Sn0+  Sn18  1  0.79100000  0.12500000  0.12500000  1.0
  Sn0+  Sn19  1  0.45900000  0.12500000  0.12500000  1.0
  Sn0+  Sn20  1  0.20900000  0.37500000  0.37500000  1.0
  Sn0+  Sn21  1  0.54100000  0.37500000  0.37500000  1.0
  Sn0+  Sn22  1  0.79100000  0.62500000  0.62500000  1.0
  Sn0+  Sn23  1  0.45900000  0.62500000  0.62500000  1.0
  Sn0+  Sn24  1  0.70900000  0.87500000  0.37500000  1.0
  Sn0+  Sn25  1  0.04100000  0.87500000  0.37500000  1.0
  Sn0+  Sn26  1  0.29100000  0.12500000  0.62500000  1.0
  Sn0+  Sn27  1  0.95900000  0.12500000  0.62500000  1.0
  Sn0+  Sn28  1  0.70900000  0.37500000  0.87500000  1.0
  Sn0+  Sn29  1  0.04100000  0.37500000  0.87500000  1.0
  Sn0+  Sn30  1  0.29100000  0.62500000  0.12500000  1.0
  Sn0+  Sn31  1  0.95900000  0.62500000  0.12500000  1.0
  Sn0+  Sn32  1  0.87500000  0.87500000  0.95800000  1.0
  Sn0+  Sn33  1  0.87500000  0.87500000  0.79200000  1.0
  Sn0+  Sn34  1  0.12500000  0.12500000  0.04200000  1.0
  Sn0+  Sn35  1  0.12500000  0.12500000  0.20800000  1.0
  Sn0+  Sn36  1  0.87500000  0.37500000  0.45800000  1.0
  Sn0+  Sn37  1  0.87500000  0.37500000  0.29200000  1.0
  Sn0+  Sn38  1  0.12500000  0.62500000  0.54200000  1.0
  Sn0+  Sn39  1  0.12500000  0.62500000  0.70800000  1.0
  Sn0+  Sn40  1  0.37500000  0.87500000  0.45800000  1.0
  Sn0+  Sn41  1  0.37500000  0.87500000  0.29200000  1.0
  Sn0+  Sn42  1  0.62500000  0.12500000  0.54200000  1.0
  Sn0+  Sn43  1  0.62500000  0.12500000  0.70800000  1.0
  Sn0+  Sn44  1  0.37500000  0.37500000  0.95800000  1.0
  Sn0+  Sn45  1  0.37500000  0.37500000  0.79200000  1.0
  Sn0+  Sn46  1  0.62500000  0.62500000  0.04200000  1.0
  Sn0+  Sn47  1  0.62500000  0.62500000  0.20800000  1.0
