# generated using pymatgen
data_Nb3Te4
_symmetry_space_group_name_H-M   'P 1'
_cell_length_a   10.64500000
_cell_length_b   10.64500000
_cell_length_c   3.63600000
_cell_angle_alpha   90.00000000
_cell_angle_beta   90.00000000
_cell_angle_gamma   120.00000000
_symmetry_Int_Tables_number   1
_chemical_formula_structural   Nb3Te4
_chemical_formula_sum   'Nb6 Te8'
_cell_volume   356.81724673
_cell_formula_units_Z   2
loop_
 _symmetry_equiv_pos_site_id
 _symmetry_equiv_pos_as_xyz
  1  'x, y, z'
loop_
 _atom_type_symbol
 _atom_type_oxidation_number
  Nb2.67+  2.67
  Te2-  -2.0
loop_
 _atom_site_type_symbol
 _atom_site_label
 _atom_site_symmetry_multiplicity
 _atom_site_fract_x
 _atom_site_fract_y
 _atom_site_fract_z
 _atom_site_occupancy
  Nb2.67+  Nb0  1  0.38500000  0.89600000  0.25000000  1.0
  Nb2.67+  Nb1  1  0.51100000  0.61500000  0.25000000  1.0
  Nb2.67+  Nb2  1  0.10400000  0.48900000  0.25000000  1.0
  Nb2.67+  Nb3  1  0.61500000  0.10400000  0.75000000  1.0
  Nb2.67+  Nb4  1  0.48900000  0.38500000  0.75000000  1.0
  Nb2.67+  Nb5  1  0.89600000  0.51100000  0.75000000  1.0
  Te2-  Te6  1  0.66666667  0.33333333  0.25000000  1.0
  Te2-  Te7  1  0.33333333  0.66666667  0.75000000  1.0
  Te2-  Te8  1  0.06600000  0.72700000  0.25000000  1.0
  Te2-  Te9  1  0.66100000  0.93400000  0.25000000  1.0
  Te2-  Te10  1  0.27300000  0.33900000  0.25000000  1.0
  Te2-  Te11  1  0.93400000  0.27300000  0.75000000  1.0
  Te2-  Te12  1  0.33900000  0.06600000  0.75000000  1.0
  Te2-  Te13  1  0.72700000  0.66100000  0.75000000  1.0
