# generated using pymatgen
data_GaAu
_symmetry_space_group_name_H-M   'P 1'
_cell_length_a   6.26200000
_cell_length_b   3.46300000
_cell_length_c   6.39710000
_cell_angle_alpha   90.00000000
_cell_angle_beta   90.00000000
_cell_angle_gamma   90.00000000
_symmetry_Int_Tables_number   1
_chemical_formula_structural   GaAu
_chemical_formula_sum   'Ga4 Au4'
_cell_volume   138.72307101
_cell_formula_units_Z   4
loop_
 _symmetry_equiv_pos_site_id
 _symmetry_equiv_pos_as_xyz
  1  'x, y, z'
loop_
 _atom_type_symbol
 _atom_type_oxidation_number
  Ga3-  -3.0
  Au3+  3.0
loop_
 _atom_site_type_symbol
 _atom_site_label
 _atom_site_symmetry_multiplicity
 _atom_site_fract_x
 _atom_site_fract_y
 _atom_site_fract_z
 _atom_site_occupancy
  Ga3-  Ga0  1  0.69500000  0.25000000  0.91000000  1.0
  Ga3-  Ga1  1  0.19500000  0.25000000  0.59000000  1.0
  Ga3-  Ga2  1  0.30500000  0.75000000  0.09000000  1.0
  Ga3-  Ga3  1  0.80500000  0.75000000  0.41000000  1.0
  Au3+  Au4  1  0.51000000  0.25000000  0.31600000  1.0
  Au3+  Au5  1  0.01000000  0.25000000  0.18400000  1.0
  Au3+  Au6  1  0.49000000  0.75000000  0.68400000  1.0
  Au3+  Au7  1  0.99000000  0.75000000  0.81600000  1.0
