# generated using pymatgen
data_Tl(NiSe)2
_symmetry_space_group_name_H-M   'P 1'
_cell_length_a   3.86600000
_cell_length_b   3.86600000
_cell_length_c   13.41000000
_cell_angle_alpha   90.00000000
_cell_angle_beta   90.00000000
_cell_angle_gamma   90.00000000
_symmetry_Int_Tables_number   1
_chemical_formula_structural   Tl(NiSe)2
_chemical_formula_sum   'Tl2 Ni4 Se4'
_cell_volume   200.42526996
_cell_formula_units_Z   2
loop_
 _symmetry_equiv_pos_site_id
 _symmetry_equiv_pos_as_xyz
  1  'x, y, z'
loop_
 _atom_type_symbol
 _atom_type_oxidation_number
  Tl+  1.0
  Ni1.5+  1.5
  Se2-  -2.0
loop_
 _atom_site_type_symbol
 _atom_site_label
 _atom_site_symmetry_multiplicity
 _atom_site_fract_x
 _atom_site_fract_y
 _atom_site_fract_z
 _atom_site_occupancy
  Tl+  Tl0  1  0.00000000  0.00000000  0.00000000  1.0
  Tl+  Tl1  1  0.50000000  0.50000000  0.50000000  1.0
  Ni1.5+  Ni2  1  0.50000000  0.00000000  0.75000000  1.0
  Ni1.5+  Ni3  1  0.00000000  0.50000000  0.75000000  1.0
  Ni1.5+  Ni4  1  0.50000000  0.00000000  0.25000000  1.0
  Ni1.5+  Ni5  1  0.00000000  0.50000000  0.25000000  1.0
  Se2-  Se6  1  0.00000000  0.00000000  0.64000000  1.0
  Se2-  Se7  1  0.00000000  0.00000000  0.36000000  1.0
  Se2-  Se8  1  0.50000000  0.50000000  0.14000000  1.0
  Se2-  Se9  1  0.50000000  0.50000000  0.86000000  1.0
