# generated using pymatgen
data_P3Pd7
_symmetry_space_group_name_H-M   'P 1'
_cell_length_a   11.95200000
_cell_length_b   11.95200000
_cell_length_c   7.03700000
_cell_angle_alpha   90.00000000
_cell_angle_beta   90.00000000
_cell_angle_gamma   120.00000000
_symmetry_Int_Tables_number   1
_chemical_formula_structural   P3Pd7
_chemical_formula_sum   'P18 Pd42'
_cell_volume   870.56128913
_cell_formula_units_Z   6
loop_
 _symmetry_equiv_pos_site_id
 _symmetry_equiv_pos_as_xyz
  1  'x, y, z'
loop_
 _atom_type_symbol
 _atom_type_oxidation_number
  P0+  0.0
  Pd0+  0.0
loop_
 _atom_site_type_symbol
 _atom_site_label
 _atom_site_symmetry_multiplicity
 _atom_site_fract_x
 _atom_site_fract_y
 _atom_site_fract_z
 _atom_site_occupancy
  P0+  P0  1  0.80500000  0.79400000  0.32100000  1.0
  P0+  P1  1  0.98900000  0.19500000  0.32100000  1.0
  P0+  P2  1  0.20600000  0.01100000  0.32100000  1.0
  P0+  P3  1  0.47166667  0.12733333  0.65433333  1.0
  P0+  P4  1  0.65566667  0.52833333  0.65433333  1.0
  P0+  P5  1  0.87266667  0.34433333  0.65433333  1.0
  P0+  P6  1  0.13833333  0.46066667  0.98766667  1.0
  P0+  P7  1  0.32233333  0.86166667  0.98766667  1.0
  P0+  P8  1  0.53933333  0.67766667  0.98766667  1.0
  P0+  P9  1  0.01300000  0.82500000  0.74000000  1.0
  P0+  P10  1  0.81200000  0.98700000  0.74000000  1.0
  P0+  P11  1  0.17500000  0.18800000  0.74000000  1.0
  P0+  P12  1  0.67966667  0.15833333  0.07333333  1.0
  P0+  P13  1  0.47866667  0.32033333  0.07333333  1.0
  P0+  P14  1  0.84166667  0.52133333  0.07333333  1.0
  P0+  P15  1  0.34633333  0.49166667  0.40666667  1.0
  P0+  P16  1  0.14533333  0.65366667  0.40666667  1.0
  P0+  P17  1  0.50833333  0.85466667  0.40666667  1.0
  Pd0+  Pd18  1  0.16700000  0.90700000  0.00000000  1.0
  Pd0+  Pd19  1  0.74000000  0.83300000  0.00000000  1.0
  Pd0+  Pd20  1  0.09300000  0.26000000  0.00000000  1.0
  Pd0+  Pd21  1  0.83366667  0.24033333  0.33333333  1.0
  Pd0+  Pd22  1  0.40666667  0.16633333  0.33333333  1.0
  Pd0+  Pd23  1  0.75966667  0.59333333  0.33333333  1.0
  Pd0+  Pd24  1  0.50033333  0.57366667  0.66666667  1.0
  Pd0+  Pd25  1  0.07333333  0.49966667  0.66666667  1.0
  Pd0+  Pd26  1  0.42633333  0.92666667  0.66666667  1.0
  Pd0+  Pd27  1  0.90100000  0.73800000  0.02600000  1.0
  Pd0+  Pd28  1  0.83700000  0.09900000  0.02600000  1.0
  Pd0+  Pd29  1  0.26200000  0.16300000  0.02600000  1.0
  Pd0+  Pd30  1  0.56766667  0.07133333  0.35933333  1.0
  Pd0+  Pd31  1  0.50366667  0.43233333  0.35933333  1.0
  Pd0+  Pd32  1  0.92866667  0.49633333  0.35933333  1.0
  Pd0+  Pd33  1  0.23433333  0.40466667  0.69266667  1.0
  Pd0+  Pd34  1  0.17033333  0.76566667  0.69266667  1.0
  Pd0+  Pd35  1  0.59533333  0.82966667  0.69266667  1.0
  Pd0+  Pd36  1  0.03200000  0.79100000  0.38900000  1.0
  Pd0+  Pd37  1  0.75900000  0.96800000  0.38900000  1.0
  Pd0+  Pd38  1  0.20900000  0.24100000  0.38900000  1.0
  Pd0+  Pd39  1  0.69866667  0.12433333  0.72233333  1.0
  Pd0+  Pd40  1  0.42566667  0.30133333  0.72233333  1.0
  Pd0+  Pd41  1  0.87566667  0.57433333  0.72233333  1.0
  Pd0+  Pd42  1  0.36533333  0.45766667  0.05566667  1.0
  Pd0+  Pd43  1  0.09233333  0.63466667  0.05566667  1.0
  Pd0+  Pd44  1  0.54233333  0.90766667  0.05566667  1.0
  Pd0+  Pd45  1  0.79400000  0.76600000  0.63600000  1.0
  Pd0+  Pd46  1  0.97200000  0.20600000  0.63600000  1.0
  Pd0+  Pd47  1  0.23400000  0.02800000  0.63600000  1.0
  Pd0+  Pd48  1  0.46066667  0.09933333  0.96933333  1.0
  Pd0+  Pd49  1  0.63866667  0.53933333  0.96933333  1.0
  Pd0+  Pd50  1  0.90066667  0.36133333  0.96933333  1.0
  Pd0+  Pd51  1  0.12733333  0.43266667  0.30266667  1.0
  Pd0+  Pd52  1  0.30533333  0.87266667  0.30266667  1.0
  Pd0+  Pd53  1  0.56733333  0.69466667  0.30266667  1.0
  Pd0+  Pd54  1  0.00000000  0.00000000  0.28900000  1.0
  Pd0+  Pd55  1  0.66666667  0.33333333  0.62233333  1.0
  Pd0+  Pd56  1  0.33333333  0.66666667  0.95566667  1.0
  Pd0+  Pd57  1  0.00000000  0.00000000  0.87400000  1.0
  Pd0+  Pd58  1  0.66666667  0.33333333  0.20733333  1.0
  Pd0+  Pd59  1  0.33333333  0.66666667  0.54066667  1.0
