# generated using pymatgen
data_PPd3
_symmetry_space_group_name_H-M   'P 1'
_cell_length_a   5.90900000
_cell_length_b   7.46600000
_cell_length_c   5.17700000
_cell_angle_alpha   90.00000000
_cell_angle_beta   90.00000000
_cell_angle_gamma   90.00000000
_symmetry_Int_Tables_number   1
_chemical_formula_structural   PPd3
_chemical_formula_sum   'P4 Pd12'
_cell_volume   228.39160714
_cell_formula_units_Z   4
loop_
 _symmetry_equiv_pos_site_id
 _symmetry_equiv_pos_as_xyz
  1  'x, y, z'
loop_
 _atom_type_symbol
 _atom_type_oxidation_number
  P0+  0.0
  Pd0+  0.0
loop_
 _atom_site_type_symbol
 _atom_site_label
 _atom_site_symmetry_multiplicity
 _atom_site_fract_x
 _atom_site_fract_y
 _atom_site_fract_z
 _atom_site_occupancy
  P0+  P0  1  0.84000000  0.25000000  0.15000000  1.0
  P0+  P1  1  0.34000000  0.25000000  0.35000000  1.0
  P0+  P2  1  0.16000000  0.75000000  0.85000000  1.0
  P0+  P3  1  0.66000000  0.75000000  0.65000000  1.0
  Pd0+  Pd4  1  0.71000000  0.04000000  0.35000000  1.0
  Pd0+  Pd5  1  0.21000000  0.46000000  0.15000000  1.0
  Pd0+  Pd6  1  0.29000000  0.54000000  0.65000000  1.0
  Pd0+  Pd7  1  0.79000000  0.96000000  0.85000000  1.0
  Pd0+  Pd8  1  0.29000000  0.96000000  0.65000000  1.0
  Pd0+  Pd9  1  0.79000000  0.54000000  0.85000000  1.0
  Pd0+  Pd10  1  0.71000000  0.46000000  0.35000000  1.0
  Pd0+  Pd11  1  0.21000000  0.04000000  0.15000000  1.0
  Pd0+  Pd12  1  0.54000000  0.25000000  0.88000000  1.0
  Pd0+  Pd13  1  0.04000000  0.25000000  0.62000000  1.0
  Pd0+  Pd14  1  0.46000000  0.75000000  0.12000000  1.0
  Pd0+  Pd15  1  0.96000000  0.75000000  0.38000000  1.0
