# generated using pymatgen
data_TaPRh
_symmetry_space_group_name_H-M   'P 1'
_cell_length_a   6.25300000
_cell_length_b   3.73600000
_cell_length_c   7.18000000
_cell_angle_alpha   90.00000000
_cell_angle_beta   90.00000000
_cell_angle_gamma   90.00000000
_symmetry_Int_Tables_number   1
_chemical_formula_structural   TaPRh
_chemical_formula_sum   'Ta4 P4 Rh4'
_cell_volume   167.73347344
_cell_formula_units_Z   4
loop_
 _symmetry_equiv_pos_site_id
 _symmetry_equiv_pos_as_xyz
  1  'x, y, z'
loop_
 _atom_type_symbol
 _atom_type_oxidation_number
  Ta0+  0.0
  P0+  0.0
  Rh0+  0.0
loop_
 _atom_site_type_symbol
 _atom_site_label
 _atom_site_symmetry_multiplicity
 _atom_site_fract_x
 _atom_site_fract_y
 _atom_site_fract_z
 _atom_site_occupancy
  Ta0+  Ta0  1  0.52000000  0.25000000  0.31700000  1.0
  Ta0+  Ta1  1  0.02000000  0.25000000  0.18300000  1.0
  Ta0+  Ta2  1  0.48000000  0.75000000  0.68300000  1.0
  Ta0+  Ta3  1  0.98000000  0.75000000  0.81700000  1.0
  P0+  P4  1  0.27800000  0.25000000  0.88400000  1.0
  P0+  P5  1  0.77800000  0.25000000  0.61600000  1.0
  P0+  P6  1  0.72200000  0.75000000  0.11600000  1.0
  P0+  P7  1  0.22200000  0.75000000  0.38400000  1.0
  Rh0+  Rh8  1  0.64700000  0.25000000  0.93800000  1.0
  Rh0+  Rh9  1  0.14700000  0.25000000  0.56200000  1.0
  Rh0+  Rh10  1  0.35300000  0.75000000  0.06200000  1.0
  Rh0+  Rh11  1  0.85300000  0.75000000  0.43800000  1.0
