# generated using pymatgen
data_I
_symmetry_space_group_name_H-M   'P 1'
_cell_length_a   7.11906000
_cell_length_b   4.65996000
_cell_length_c   9.79560000
_cell_angle_alpha   90.00000000
_cell_angle_beta   90.00000000
_cell_angle_gamma   90.00000000
_symmetry_Int_Tables_number   1
_chemical_formula_structural   I
_chemical_formula_sum   I8
_cell_volume   324.96447346
_cell_formula_units_Z   8
loop_
 _symmetry_equiv_pos_site_id
 _symmetry_equiv_pos_as_xyz
  1  'x, y, z'
loop_
 _atom_type_symbol
 _atom_type_oxidation_number
  I0+  0.0
loop_
 _atom_site_type_symbol
 _atom_site_label
 _atom_site_symmetry_multiplicity
 _atom_site_fract_x
 _atom_site_fract_y
 _atom_site_fract_z
 _atom_site_occupancy
  I0+  I0  1  0.00000000  0.34515000  0.61750000  1.0
  I0+  I1  1  0.00000000  0.65485000  0.38250000  1.0
  I0+  I2  1  0.00000000  0.15485000  0.11750000  1.0
  I0+  I3  1  0.00000000  0.84515000  0.88250000  1.0
  I0+  I4  1  0.50000000  0.84515000  0.61750000  1.0
  I0+  I5  1  0.50000000  0.15485000  0.38250000  1.0
  I0+  I6  1  0.50000000  0.65485000  0.11750000  1.0
  I0+  I7  1  0.50000000  0.34515000  0.88250000  1.0
