# generated using pymatgen
data_PW3
_symmetry_space_group_name_H-M   'P 1'
_cell_length_a   9.89000000
_cell_length_b   9.89000000
_cell_length_c   4.80800000
_cell_angle_alpha   90.00000000
_cell_angle_beta   90.00000000
_cell_angle_gamma   90.00000000
_symmetry_Int_Tables_number   1
_chemical_formula_structural   PW3
_chemical_formula_sum   'P8 W24'
_cell_volume   470.28057680
_cell_formula_units_Z   8
loop_
 _symmetry_equiv_pos_site_id
 _symmetry_equiv_pos_as_xyz
  1  'x, y, z'
loop_
 _atom_type_symbol
 _atom_type_oxidation_number
  P0+  0.0
  W0+  0.0
loop_
 _atom_site_type_symbol
 _atom_site_label
 _atom_site_symmetry_multiplicity
 _atom_site_fract_x
 _atom_site_fract_y
 _atom_site_fract_z
 _atom_site_occupancy
  P0+  P0  1  0.98900000  0.29000000  0.50300000  1.0
  P0+  P1  1  0.01100000  0.71000000  0.50300000  1.0
  P0+  P2  1  0.71000000  0.98900000  0.49700000  1.0
  P0+  P3  1  0.29000000  0.01100000  0.49700000  1.0
  P0+  P4  1  0.48900000  0.79000000  0.00300000  1.0
  P0+  P5  1  0.51100000  0.21000000  0.00300000  1.0
  P0+  P6  1  0.21000000  0.48900000  0.99700000  1.0
  P0+  P7  1  0.79000000  0.51100000  0.99700000  1.0
  W0+  W8  1  0.90400000  0.09000000  0.76700000  1.0
  W0+  W9  1  0.09600000  0.91000000  0.76700000  1.0
  W0+  W10  1  0.91000000  0.90400000  0.23300000  1.0
  W0+  W11  1  0.09000000  0.09600000  0.23300000  1.0
  W0+  W12  1  0.40400000  0.59000000  0.26700000  1.0
  W0+  W13  1  0.59600000  0.41000000  0.26700000  1.0
  W0+  W14  1  0.41000000  0.40400000  0.73300000  1.0
  W0+  W15  1  0.59000000  0.59600000  0.73300000  1.0
  W0+  W16  1  0.99400000  0.35000000  0.00200000  1.0
  W0+  W17  1  0.00600000  0.65000000  0.00200000  1.0
  W0+  W18  1  0.65000000  0.99400000  0.99800000  1.0
  W0+  W19  1  0.35000000  0.00600000  0.99800000  1.0
  W0+  W20  1  0.49400000  0.85000000  0.50200000  1.0
  W0+  W21  1  0.50600000  0.15000000  0.50200000  1.0
  W0+  W22  1  0.15000000  0.49400000  0.49800000  1.0
  W0+  W23  1  0.85000000  0.50600000  0.49800000  1.0
  W0+  W24  1  0.79100000  0.19600000  0.26400000  1.0
  W0+  W25  1  0.20900000  0.80400000  0.26400000  1.0
  W0+  W26  1  0.80400000  0.79100000  0.73600000  1.0
  W0+  W27  1  0.19600000  0.20900000  0.73600000  1.0
  W0+  W28  1  0.29100000  0.69600000  0.76400000  1.0
  W0+  W29  1  0.70900000  0.30400000  0.76400000  1.0
  W0+  W30  1  0.30400000  0.29100000  0.23600000  1.0
  W0+  W31  1  0.69600000  0.70900000  0.23600000  1.0
