# generated using pymatgen
data_Zr3P
_symmetry_space_group_name_H-M   'P 1'
_cell_length_a   10.79940000
_cell_length_b   10.79940000
_cell_length_c   5.35450000
_cell_angle_alpha   90.00000000
_cell_angle_beta   90.00000000
_cell_angle_gamma   90.00000000
_symmetry_Int_Tables_number   1
_chemical_formula_structural   Zr3P
_chemical_formula_sum   'Zr24 P8'
_cell_volume   624.47948761
_cell_formula_units_Z   8
loop_
 _symmetry_equiv_pos_site_id
 _symmetry_equiv_pos_as_xyz
  1  'x, y, z'
loop_
 _atom_type_symbol
 _atom_type_oxidation_number
  Zr0+  0.0
  P0+  0.0
loop_
 _atom_site_type_symbol
 _atom_site_label
 _atom_site_symmetry_multiplicity
 _atom_site_fract_x
 _atom_site_fract_y
 _atom_site_fract_z
 _atom_site_occupancy
  Zr0+  Zr0  1  0.85800000  0.16500000  0.78700000  1.0
  Zr0+  Zr1  1  0.64200000  0.33500000  0.78700000  1.0
  Zr0+  Zr2  1  0.66500000  0.14200000  0.28700000  1.0
  Zr0+  Zr3  1  0.83500000  0.35800000  0.28700000  1.0
  Zr0+  Zr4  1  0.14200000  0.83500000  0.21300000  1.0
  Zr0+  Zr5  1  0.35800000  0.66500000  0.21300000  1.0
  Zr0+  Zr6  1  0.33500000  0.85800000  0.71300000  1.0
  Zr0+  Zr7  1  0.16500000  0.64200000  0.71300000  1.0
  Zr0+  Zr8  1  0.22200000  0.11300000  0.97300000  1.0
  Zr0+  Zr9  1  0.27800000  0.38700000  0.97300000  1.0
  Zr0+  Zr10  1  0.61300000  0.77800000  0.47300000  1.0
  Zr0+  Zr11  1  0.88700000  0.72200000  0.47300000  1.0
  Zr0+  Zr12  1  0.77800000  0.88700000  0.02700000  1.0
  Zr0+  Zr13  1  0.72200000  0.61300000  0.02700000  1.0
  Zr0+  Zr14  1  0.38700000  0.22200000  0.52700000  1.0
  Zr0+  Zr15  1  0.11300000  0.27800000  0.52700000  1.0
  Zr0+  Zr16  1  0.96500000  0.07100000  0.26300000  1.0
  Zr0+  Zr17  1  0.53500000  0.42900000  0.26300000  1.0
  Zr0+  Zr18  1  0.57100000  0.03500000  0.76300000  1.0
  Zr0+  Zr19  1  0.92900000  0.46500000  0.76300000  1.0
  Zr0+  Zr20  1  0.03500000  0.92900000  0.73700000  1.0
  Zr0+  Zr21  1  0.46500000  0.57100000  0.73700000  1.0
  Zr0+  Zr22  1  0.42900000  0.96500000  0.23700000  1.0
  Zr0+  Zr23  1  0.07100000  0.53500000  0.23700000  1.0
  P0+  P24  1  0.20900000  0.04400000  0.46700000  1.0
  P0+  P25  1  0.29100000  0.45600000  0.46700000  1.0
  P0+  P26  1  0.54400000  0.79100000  0.96700000  1.0
  P0+  P27  1  0.95600000  0.70900000  0.96700000  1.0
  P0+  P28  1  0.79100000  0.95600000  0.53300000  1.0
  P0+  P29  1  0.70900000  0.54400000  0.53300000  1.0
  P0+  P30  1  0.45600000  0.20900000  0.03300000  1.0
  P0+  P31  1  0.04400000  0.29100000  0.03300000  1.0
