# generated using pymatgen
data_PtPb4
_symmetry_space_group_name_H-M   'P 1'
_cell_length_a   6.66400000
_cell_length_b   6.66400000
_cell_length_c   5.97800000
_cell_angle_alpha   90.00000000
_cell_angle_beta   90.00000000
_cell_angle_gamma   90.00000000
_symmetry_Int_Tables_number   1
_chemical_formula_structural   PtPb4
_chemical_formula_sum   'Pt2 Pb8'
_cell_volume   265.47638029
_cell_formula_units_Z   2
loop_
 _symmetry_equiv_pos_site_id
 _symmetry_equiv_pos_as_xyz
  1  'x, y, z'
loop_
 _atom_type_symbol
 _atom_type_oxidation_number
  Pt0+  0.0
  Pb0+  0.0
loop_
 _atom_site_type_symbol
 _atom_site_label
 _atom_site_symmetry_multiplicity
 _atom_site_fract_x
 _atom_site_fract_y
 _atom_site_fract_z
 _atom_site_occupancy
  Pt0+  Pt0  1  0.50000000  0.50000000  0.00000000  1.0
  Pt0+  Pt1  1  0.00000000  0.00000000  0.00000000  1.0
  Pb0+  Pb2  1  0.17500000  0.67500000  0.25500000  1.0
  Pb0+  Pb3  1  0.82500000  0.32500000  0.25500000  1.0
  Pb0+  Pb4  1  0.67500000  0.17500000  0.74500000  1.0
  Pb0+  Pb5  1  0.32500000  0.82500000  0.74500000  1.0
  Pb0+  Pb6  1  0.17500000  0.32500000  0.74500000  1.0
  Pb0+  Pb7  1  0.82500000  0.67500000  0.74500000  1.0
  Pb0+  Pb8  1  0.67500000  0.82500000  0.25500000  1.0
  Pb0+  Pb9  1  0.32500000  0.17500000  0.25500000  1.0
