# generated using pymatgen
data_Pd17Se15
_symmetry_space_group_name_H-M   'P 1'
_cell_length_a   10.64000000
_cell_length_b   10.64000000
_cell_length_c   10.64000000
_cell_angle_alpha   90.00000000
_cell_angle_beta   90.00000000
_cell_angle_gamma   90.00000000
_symmetry_Int_Tables_number   1
_chemical_formula_structural   Pd17Se15
_chemical_formula_sum   'Pd34 Se30'
_cell_volume   1204.55014400
_cell_formula_units_Z   2
loop_
 _symmetry_equiv_pos_site_id
 _symmetry_equiv_pos_as_xyz
  1  'x, y, z'
loop_
 _atom_type_symbol
 _atom_type_oxidation_number
  Pd1.76+  1.76
  Se2-  -2.0
loop_
 _atom_site_type_symbol
 _atom_site_label
 _atom_site_symmetry_multiplicity
 _atom_site_fract_x
 _atom_site_fract_y
 _atom_site_fract_z
 _atom_site_occupancy
  Pd1.76+  Pd0  1  0.15000000  0.35200000  0.64800000  1.0
  Pd1.76+  Pd1  1  0.35200000  0.35200000  0.85000000  1.0
  Pd1.76+  Pd2  1  0.35200000  0.15000000  0.64800000  1.0
  Pd1.76+  Pd3  1  0.15000000  0.64800000  0.35200000  1.0
  Pd1.76+  Pd4  1  0.35200000  0.64800000  0.15000000  1.0
  Pd1.76+  Pd5  1  0.35200000  0.85000000  0.35200000  1.0
  Pd1.76+  Pd6  1  0.85000000  0.35200000  0.35200000  1.0
  Pd1.76+  Pd7  1  0.64800000  0.35200000  0.15000000  1.0
  Pd1.76+  Pd8  1  0.64800000  0.15000000  0.35200000  1.0
  Pd1.76+  Pd9  1  0.85000000  0.64800000  0.64800000  1.0
  Pd1.76+  Pd10  1  0.64800000  0.64800000  0.85000000  1.0
  Pd1.76+  Pd11  1  0.64800000  0.85000000  0.64800000  1.0
  Pd1.76+  Pd12  1  0.85000000  0.64800000  0.35200000  1.0
  Pd1.76+  Pd13  1  0.64800000  0.64800000  0.15000000  1.0
  Pd1.76+  Pd14  1  0.64800000  0.85000000  0.35200000  1.0
  Pd1.76+  Pd15  1  0.85000000  0.35200000  0.64800000  1.0
  Pd1.76+  Pd16  1  0.64800000  0.35200000  0.85000000  1.0
  Pd1.76+  Pd17  1  0.64800000  0.15000000  0.64800000  1.0
  Pd1.76+  Pd18  1  0.15000000  0.64800000  0.64800000  1.0
  Pd1.76+  Pd19  1  0.35200000  0.64800000  0.85000000  1.0
  Pd1.76+  Pd20  1  0.35200000  0.85000000  0.64800000  1.0
  Pd1.76+  Pd21  1  0.15000000  0.35200000  0.35200000  1.0
  Pd1.76+  Pd22  1  0.35200000  0.35200000  0.15000000  1.0
  Pd1.76+  Pd23  1  0.35200000  0.15000000  0.35200000  1.0
  Pd1.76+  Pd24  1  0.23800000  0.00000000  0.00000000  1.0
  Pd1.76+  Pd25  1  0.00000000  0.00000000  0.76200000  1.0
  Pd1.76+  Pd26  1  0.00000000  0.23800000  0.00000000  1.0
  Pd1.76+  Pd27  1  0.00000000  0.00000000  0.23800000  1.0
  Pd1.76+  Pd28  1  0.00000000  0.76200000  0.00000000  1.0
  Pd1.76+  Pd29  1  0.76200000  0.00000000  0.00000000  1.0
  Pd1.76+  Pd30  1  0.50000000  0.00000000  0.00000000  1.0
  Pd1.76+  Pd31  1  0.00000000  0.00000000  0.50000000  1.0
  Pd1.76+  Pd32  1  0.00000000  0.50000000  0.00000000  1.0
  Pd1.76+  Pd33  1  0.50000000  0.50000000  0.50000000  1.0
  Se2-  Se34  1  0.50000000  0.16800000  0.83200000  1.0
  Se2-  Se35  1  0.16800000  0.16800000  0.50000000  1.0
  Se2-  Se36  1  0.16800000  0.50000000  0.83200000  1.0
  Se2-  Se37  1  0.50000000  0.83200000  0.16800000  1.0
  Se2-  Se38  1  0.16800000  0.83200000  0.50000000  1.0
  Se2-  Se39  1  0.16800000  0.50000000  0.16800000  1.0
  Se2-  Se40  1  0.50000000  0.16800000  0.16800000  1.0
  Se2-  Se41  1  0.83200000  0.16800000  0.50000000  1.0
  Se2-  Se42  1  0.83200000  0.50000000  0.16800000  1.0
  Se2-  Se43  1  0.50000000  0.83200000  0.83200000  1.0
  Se2-  Se44  1  0.83200000  0.83200000  0.50000000  1.0
  Se2-  Se45  1  0.83200000  0.50000000  0.83200000  1.0
  Se2-  Se46  1  0.00000000  0.23000000  0.77000000  1.0
  Se2-  Se47  1  0.23000000  0.23000000  0.00000000  1.0
  Se2-  Se48  1  0.23000000  0.00000000  0.77000000  1.0
  Se2-  Se49  1  0.00000000  0.77000000  0.23000000  1.0
  Se2-  Se50  1  0.23000000  0.77000000  0.00000000  1.0
  Se2-  Se51  1  0.23000000  0.00000000  0.23000000  1.0
  Se2-  Se52  1  0.00000000  0.23000000  0.23000000  1.0
  Se2-  Se53  1  0.77000000  0.23000000  0.00000000  1.0
  Se2-  Se54  1  0.77000000  0.00000000  0.23000000  1.0
  Se2-  Se55  1  0.00000000  0.77000000  0.77000000  1.0
  Se2-  Se56  1  0.77000000  0.77000000  0.00000000  1.0
  Se2-  Se57  1  0.77000000  0.00000000  0.77000000  1.0
  Se2-  Se58  1  0.25700000  0.50000000  0.50000000  1.0
  Se2-  Se59  1  0.50000000  0.50000000  0.74300000  1.0
  Se2-  Se60  1  0.50000000  0.25700000  0.50000000  1.0
  Se2-  Se61  1  0.50000000  0.50000000  0.25700000  1.0
  Se2-  Se62  1  0.50000000  0.74300000  0.50000000  1.0
  Se2-  Se63  1  0.74300000  0.50000000  0.50000000  1.0
