# generated using pymatgen
data_Tl2Pd
_symmetry_space_group_name_H-M   'P 1'
_cell_length_a   6.68000000
_cell_length_b   6.68000000
_cell_length_c   5.72000000
_cell_angle_alpha   90.00000000
_cell_angle_beta   90.00000000
_cell_angle_gamma   90.00000000
_symmetry_Int_Tables_number   1
_chemical_formula_structural   Tl2Pd
_chemical_formula_sum   'Tl8 Pd4'
_cell_volume   255.24012800
_cell_formula_units_Z   4
loop_
 _symmetry_equiv_pos_site_id
 _symmetry_equiv_pos_as_xyz
  1  'x, y, z'
loop_
 _atom_type_symbol
 _atom_type_oxidation_number
  Tl0+  0.0
  Pd0+  0.0
loop_
 _atom_site_type_symbol
 _atom_site_label
 _atom_site_symmetry_multiplicity
 _atom_site_fract_x
 _atom_site_fract_y
 _atom_site_fract_z
 _atom_site_occupancy
  Tl0+  Tl0  1  0.66600000  0.16600000  0.50000000  1.0
  Tl0+  Tl1  1  0.33400000  0.83400000  0.50000000  1.0
  Tl0+  Tl2  1  0.33400000  0.16600000  0.00000000  1.0
  Tl0+  Tl3  1  0.66600000  0.83400000  0.00000000  1.0
  Tl0+  Tl4  1  0.16600000  0.33400000  0.50000000  1.0
  Tl0+  Tl5  1  0.83400000  0.66600000  0.50000000  1.0
  Tl0+  Tl6  1  0.16600000  0.66600000  0.00000000  1.0
  Tl0+  Tl7  1  0.83400000  0.33400000  0.00000000  1.0
  Pd0+  Pd8  1  0.00000000  0.00000000  0.25000000  1.0
  Pd0+  Pd9  1  0.00000000  0.00000000  0.75000000  1.0
  Pd0+  Pd10  1  0.50000000  0.50000000  0.75000000  1.0
  Pd0+  Pd11  1  0.50000000  0.50000000  0.25000000  1.0
