# generated using pymatgen
data_SiPt
_symmetry_space_group_name_H-M   'P 1'
_cell_length_a   5.57700000
_cell_length_b   3.58700000
_cell_length_c   5.91600000
_cell_angle_alpha   90.00000000
_cell_angle_beta   90.00000000
_cell_angle_gamma   90.00000000
_symmetry_Int_Tables_number   1
_chemical_formula_structural   SiPt
_chemical_formula_sum   'Si4 Pt4'
_cell_volume   118.34779928
_cell_formula_units_Z   4
loop_
 _symmetry_equiv_pos_site_id
 _symmetry_equiv_pos_as_xyz
  1  'x, y, z'
loop_
 _atom_type_symbol
 _atom_type_oxidation_number
  Si0+  0.0
  Pt0+  0.0
loop_
 _atom_site_type_symbol
 _atom_site_label
 _atom_site_symmetry_multiplicity
 _atom_site_fract_x
 _atom_site_fract_y
 _atom_site_fract_z
 _atom_site_occupancy
  Si0+  Si0  1  0.67700000  0.25000000  0.91700000  1.0
  Si0+  Si1  1  0.17700000  0.25000000  0.58300000  1.0
  Si0+  Si2  1  0.32300000  0.75000000  0.08300000  1.0
  Si0+  Si3  1  0.82300000  0.75000000  0.41700000  1.0
  Pt0+  Pt4  1  0.49560000  0.25000000  0.30780000  1.0
  Pt0+  Pt5  1  0.99560000  0.25000000  0.19220000  1.0
  Pt0+  Pt6  1  0.50440000  0.75000000  0.69220000  1.0
  Pt0+  Pt7  1  0.00440000  0.75000000  0.80780000  1.0
