# generated using pymatgen
data_Sn4Pt
_symmetry_space_group_name_H-M   'P 1'
_cell_length_a   6.38230000
_cell_length_b   6.41900000
_cell_length_c   11.36660000
_cell_angle_alpha   90.00000000
_cell_angle_beta   90.00000000
_cell_angle_gamma   90.00000000
_symmetry_Int_Tables_number   1
_chemical_formula_structural   Sn4Pt
_chemical_formula_sum   'Sn16 Pt4'
_cell_volume   465.66668352
_cell_formula_units_Z   4
loop_
 _symmetry_equiv_pos_site_id
 _symmetry_equiv_pos_as_xyz
  1  'x, y, z'
loop_
 _atom_type_symbol
 _atom_type_oxidation_number
  Sn0+  0.0
  Pt0+  0.0
loop_
 _atom_site_type_symbol
 _atom_site_label
 _atom_site_symmetry_multiplicity
 _atom_site_fract_x
 _atom_site_fract_y
 _atom_site_fract_z
 _atom_site_occupancy
  Sn0+  Sn0  1  0.67300000  0.17300000  0.12500000  1.0
  Sn0+  Sn1  1  0.32700000  0.82700000  0.12500000  1.0
  Sn0+  Sn2  1  0.82700000  0.67300000  0.12500000  1.0
  Sn0+  Sn3  1  0.17300000  0.32700000  0.12500000  1.0
  Sn0+  Sn4  1  0.67300000  0.67300000  0.62500000  1.0
  Sn0+  Sn5  1  0.32700000  0.32700000  0.62500000  1.0
  Sn0+  Sn6  1  0.82700000  0.17300000  0.62500000  1.0
  Sn0+  Sn7  1  0.17300000  0.82700000  0.62500000  1.0
  Sn0+  Sn8  1  0.82700000  0.32700000  0.87500000  1.0
  Sn0+  Sn9  1  0.17300000  0.67300000  0.87500000  1.0
  Sn0+  Sn10  1  0.67300000  0.82700000  0.87500000  1.0
  Sn0+  Sn11  1  0.32700000  0.17300000  0.87500000  1.0
  Sn0+  Sn12  1  0.82700000  0.82700000  0.37500000  1.0
  Sn0+  Sn13  1  0.17300000  0.17300000  0.37500000  1.0
  Sn0+  Sn14  1  0.67300000  0.32700000  0.37500000  1.0
  Sn0+  Sn15  1  0.32700000  0.67300000  0.37500000  1.0
  Pt0+  Pt16  1  0.50000000  0.50000000  0.00000000  1.0
  Pt0+  Pt17  1  0.00000000  0.00000000  0.00000000  1.0
  Pt0+  Pt18  1  0.50000000  0.00000000  0.50000000  1.0
  Pt0+  Pt19  1  0.00000000  0.50000000  0.50000000  1.0
