# generated using pymatgen
data_Tl2Pt
_symmetry_space_group_name_H-M   'P 1'
_cell_length_a   6.82000000
_cell_length_b   6.82000000
_cell_length_c   5.56000000
_cell_angle_alpha   90.00000000
_cell_angle_beta   90.00000000
_cell_angle_gamma   90.00000000
_symmetry_Int_Tables_number   1
_chemical_formula_structural   Tl2Pt
_chemical_formula_sum   'Tl8 Pt4'
_cell_volume   258.60894400
_cell_formula_units_Z   4
loop_
 _symmetry_equiv_pos_site_id
 _symmetry_equiv_pos_as_xyz
  1  'x, y, z'
loop_
 _atom_type_symbol
 _atom_type_oxidation_number
  Tl0+  0.0
  Pt0+  0.0
loop_
 _atom_site_type_symbol
 _atom_site_label
 _atom_site_symmetry_multiplicity
 _atom_site_fract_x
 _atom_site_fract_y
 _atom_site_fract_z
 _atom_site_occupancy
  Tl0+  Tl0  1  0.66100000  0.16100000  0.50000000  1.0
  Tl0+  Tl1  1  0.33900000  0.83900000  0.50000000  1.0
  Tl0+  Tl2  1  0.33900000  0.16100000  0.00000000  1.0
  Tl0+  Tl3  1  0.66100000  0.83900000  0.00000000  1.0
  Tl0+  Tl4  1  0.16100000  0.33900000  0.50000000  1.0
  Tl0+  Tl5  1  0.83900000  0.66100000  0.50000000  1.0
  Tl0+  Tl6  1  0.16100000  0.66100000  0.00000000  1.0
  Tl0+  Tl7  1  0.83900000  0.33900000  0.00000000  1.0
  Pt0+  Pt8  1  0.00000000  0.00000000  0.25000000  1.0
  Pt0+  Pt9  1  0.00000000  0.00000000  0.75000000  1.0
  Pt0+  Pt10  1  0.50000000  0.50000000  0.75000000  1.0
  Pt0+  Pt11  1  0.50000000  0.50000000  0.25000000  1.0
