# generated using pymatgen
data_YPt2
_symmetry_space_group_name_H-M   'P 1'
_cell_length_a   7.59000000
_cell_length_b   7.59000000
_cell_length_c   7.59000000
_cell_angle_alpha   90.00000000
_cell_angle_beta   90.00000000
_cell_angle_gamma   90.00000000
_symmetry_Int_Tables_number   1
_chemical_formula_structural   YPt2
_chemical_formula_sum   'Y8 Pt16'
_cell_volume   437.24547900
_cell_formula_units_Z   8
loop_
 _symmetry_equiv_pos_site_id
 _symmetry_equiv_pos_as_xyz
  1  'x, y, z'
loop_
 _atom_type_symbol
 _atom_type_oxidation_number
  Y0+  0.0
  Pt0+  0.0
loop_
 _atom_site_type_symbol
 _atom_site_label
 _atom_site_symmetry_multiplicity
 _atom_site_fract_x
 _atom_site_fract_y
 _atom_site_fract_z
 _atom_site_occupancy
  Y0+  Y0  1  0.25000000  0.25000000  0.25000000  1.0
  Y0+  Y1  1  0.00000000  0.00000000  0.00000000  1.0
  Y0+  Y2  1  0.25000000  0.75000000  0.75000000  1.0
  Y0+  Y3  1  0.00000000  0.50000000  0.50000000  1.0
  Y0+  Y4  1  0.75000000  0.25000000  0.75000000  1.0
  Y0+  Y5  1  0.50000000  0.00000000  0.50000000  1.0
  Y0+  Y6  1  0.75000000  0.75000000  0.25000000  1.0
  Y0+  Y7  1  0.50000000  0.50000000  0.00000000  1.0
  Pt0+  Pt8  1  0.87500000  0.87500000  0.62500000  1.0
  Pt0+  Pt9  1  0.87500000  0.62500000  0.87500000  1.0
  Pt0+  Pt10  1  0.62500000  0.87500000  0.87500000  1.0
  Pt0+  Pt11  1  0.62500000  0.62500000  0.62500000  1.0
  Pt0+  Pt12  1  0.37500000  0.37500000  0.62500000  1.0
  Pt0+  Pt13  1  0.37500000  0.62500000  0.37500000  1.0
  Pt0+  Pt14  1  0.62500000  0.37500000  0.37500000  1.0
  Pt0+  Pt15  1  0.87500000  0.37500000  0.12500000  1.0
  Pt0+  Pt16  1  0.87500000  0.12500000  0.37500000  1.0
  Pt0+  Pt17  1  0.62500000  0.12500000  0.12500000  1.0
  Pt0+  Pt18  1  0.37500000  0.87500000  0.12500000  1.0
  Pt0+  Pt19  1  0.37500000  0.12500000  0.87500000  1.0
  Pt0+  Pt20  1  0.12500000  0.87500000  0.37500000  1.0
  Pt0+  Pt21  1  0.12500000  0.62500000  0.12500000  1.0
  Pt0+  Pt22  1  0.12500000  0.37500000  0.87500000  1.0
  Pt0+  Pt23  1  0.12500000  0.12500000  0.62500000  1.0
