# generated using pymatgen
data_Y7Pt3
_symmetry_space_group_name_H-M   'P 1'
_cell_length_a   9.86400000
_cell_length_b   9.86400000
_cell_length_c   6.29900000
_cell_angle_alpha   90.00000000
_cell_angle_beta   90.00000000
_cell_angle_gamma   120.00000000
_symmetry_Int_Tables_number   1
_chemical_formula_structural   Y7Pt3
_chemical_formula_sum   'Y14 Pt6'
_cell_volume   530.77244353
_cell_formula_units_Z   2
loop_
 _symmetry_equiv_pos_site_id
 _symmetry_equiv_pos_as_xyz
  1  'x, y, z'
loop_
 _atom_type_symbol
 _atom_type_oxidation_number
  Y0+  0.0
  Pt0+  0.0
loop_
 _atom_site_type_symbol
 _atom_site_label
 _atom_site_symmetry_multiplicity
 _atom_site_fract_x
 _atom_site_fract_y
 _atom_site_fract_z
 _atom_site_occupancy
  Y0+  Y0  1  0.66666667  0.33333333  0.53800000  1.0
  Y0+  Y1  1  0.33333333  0.66666667  0.03800000  1.0
  Y0+  Y2  1  0.87500000  0.75000000  0.75000000  1.0
  Y0+  Y3  1  0.25000000  0.12500000  0.75000000  1.0
  Y0+  Y4  1  0.87500000  0.12500000  0.75000000  1.0
  Y0+  Y5  1  0.12500000  0.25000000  0.25000000  1.0
  Y0+  Y6  1  0.75000000  0.87500000  0.25000000  1.0
  Y0+  Y7  1  0.12500000  0.87500000  0.25000000  1.0
  Y0+  Y8  1  0.46100000  0.92200000  0.56300000  1.0
  Y0+  Y9  1  0.07800000  0.53900000  0.56300000  1.0
  Y0+  Y10  1  0.46100000  0.53900000  0.56300000  1.0
  Y0+  Y11  1  0.53900000  0.07800000  0.06300000  1.0
  Y0+  Y12  1  0.92200000  0.46100000  0.06300000  1.0
  Y0+  Y13  1  0.53900000  0.46100000  0.06300000  1.0
  Pt0+  Pt14  1  0.18800000  0.37600000  0.81000000  1.0
  Pt0+  Pt15  1  0.62400000  0.81200000  0.81000000  1.0
  Pt0+  Pt16  1  0.18800000  0.81200000  0.81000000  1.0
  Pt0+  Pt17  1  0.81200000  0.62400000  0.31000000  1.0
  Pt0+  Pt18  1  0.37600000  0.18800000  0.31000000  1.0
  Pt0+  Pt19  1  0.81200000  0.18800000  0.31000000  1.0
