# generated using pymatgen
data_Y2Re3Si5
_symmetry_space_group_name_H-M   'P 1'
_cell_length_a   10.88000000
_cell_length_b   10.88000000
_cell_length_c   5.53300000
_cell_angle_alpha   90.00000000
_cell_angle_beta   90.00000000
_cell_angle_gamma   90.00000000
_symmetry_Int_Tables_number   1
_chemical_formula_structural   Y2Re3Si5
_chemical_formula_sum   'Y8 Re12 Si20'
_cell_volume   654.96555520
_cell_formula_units_Z   4
loop_
 _symmetry_equiv_pos_site_id
 _symmetry_equiv_pos_as_xyz
  1  'x, y, z'
loop_
 _atom_type_symbol
 _atom_type_oxidation_number
  Y0+  0.0
  Re0+  0.0
  Si0+  0.0
loop_
 _atom_site_type_symbol
 _atom_site_label
 _atom_site_symmetry_multiplicity
 _atom_site_fract_x
 _atom_site_fract_y
 _atom_site_fract_z
 _atom_site_occupancy
  Y0+  Y0  1  0.73700000  0.57300000  0.50000000  1.0
  Y0+  Y1  1  0.26300000  0.42700000  0.50000000  1.0
  Y0+  Y2  1  0.76300000  0.07300000  0.00000000  1.0
  Y0+  Y3  1  0.23700000  0.92700000  0.00000000  1.0
  Y0+  Y4  1  0.57300000  0.26300000  0.50000000  1.0
  Y0+  Y5  1  0.42700000  0.73700000  0.50000000  1.0
  Y0+  Y6  1  0.07300000  0.23700000  0.00000000  1.0
  Y0+  Y7  1  0.92700000  0.76300000  0.00000000  1.0
  Re0+  Re8  1  0.85400000  0.87500000  0.50000000  1.0
  Re0+  Re9  1  0.14600000  0.12500000  0.50000000  1.0
  Re0+  Re10  1  0.64600000  0.37500000  0.00000000  1.0
  Re0+  Re11  1  0.35400000  0.62500000  0.00000000  1.0
  Re0+  Re12  1  0.87500000  0.14600000  0.50000000  1.0
  Re0+  Re13  1  0.12500000  0.85400000  0.50000000  1.0
  Re0+  Re14  1  0.37500000  0.35400000  0.00000000  1.0
  Re0+  Re15  1  0.62500000  0.64600000  0.00000000  1.0
  Re0+  Re16  1  0.00000000  0.50000000  0.25000000  1.0
  Re0+  Re17  1  0.50000000  0.00000000  0.75000000  1.0
  Re0+  Re18  1  0.50000000  0.00000000  0.25000000  1.0
  Re0+  Re19  1  0.00000000  0.50000000  0.75000000  1.0
  Si0+  Si20  1  0.17300000  0.67300000  0.25000000  1.0
  Si0+  Si21  1  0.82700000  0.32700000  0.25000000  1.0
  Si0+  Si22  1  0.32700000  0.17300000  0.75000000  1.0
  Si0+  Si23  1  0.67300000  0.82700000  0.75000000  1.0
  Si0+  Si24  1  0.67300000  0.82700000  0.25000000  1.0
  Si0+  Si25  1  0.32700000  0.17300000  0.25000000  1.0
  Si0+  Si26  1  0.17300000  0.67300000  0.75000000  1.0
  Si0+  Si27  1  0.82700000  0.32700000  0.75000000  1.0
  Si0+  Si28  1  0.50000000  0.50000000  0.23000000  1.0
  Si0+  Si29  1  0.00000000  0.00000000  0.73000000  1.0
  Si0+  Si30  1  0.50000000  0.50000000  0.77000000  1.0
  Si0+  Si31  1  0.00000000  0.00000000  0.27000000  1.0
  Si0+  Si32  1  0.97800000  0.68000000  0.50000000  1.0
  Si0+  Si33  1  0.02200000  0.32000000  0.50000000  1.0
  Si0+  Si34  1  0.52200000  0.18000000  0.00000000  1.0
  Si0+  Si35  1  0.47800000  0.82000000  0.00000000  1.0
  Si0+  Si36  1  0.68000000  0.02200000  0.50000000  1.0
  Si0+  Si37  1  0.32000000  0.97800000  0.50000000  1.0
  Si0+  Si38  1  0.18000000  0.47800000  0.00000000  1.0
  Si0+  Si39  1  0.82000000  0.52200000  0.00000000  1.0
