# generated using pymatgen
data_HfSiRh
_symmetry_space_group_name_H-M   'P 1'
_cell_length_a   6.47000000
_cell_length_b   3.91000000
_cell_length_c   7.39700000
_cell_angle_alpha   90.00000000
_cell_angle_beta   90.00000000
_cell_angle_gamma   90.00000000
_symmetry_Int_Tables_number   1
_chemical_formula_structural   HfSiRh
_chemical_formula_sum   'Hf4 Si4 Rh4'
_cell_volume   187.12708690
_cell_formula_units_Z   4
loop_
 _symmetry_equiv_pos_site_id
 _symmetry_equiv_pos_as_xyz
  1  'x, y, z'
loop_
 _atom_type_symbol
 _atom_type_oxidation_number
  Hf0+  0.0
  Si0+  0.0
  Rh0+  0.0
loop_
 _atom_site_type_symbol
 _atom_site_label
 _atom_site_symmetry_multiplicity
 _atom_site_fract_x
 _atom_site_fract_y
 _atom_site_fract_z
 _atom_site_occupancy
  Hf0+  Hf0  1  0.52400000  0.25000000  0.33100000  1.0
  Hf0+  Hf1  1  0.02400000  0.25000000  0.16900000  1.0
  Hf0+  Hf2  1  0.47600000  0.75000000  0.66900000  1.0
  Hf0+  Hf3  1  0.97600000  0.75000000  0.83100000  1.0
  Si0+  Si4  1  0.23200000  0.25000000  0.93000000  1.0
  Si0+  Si5  1  0.73200000  0.25000000  0.57000000  1.0
  Si0+  Si6  1  0.76800000  0.75000000  0.07000000  1.0
  Si0+  Si7  1  0.26800000  0.75000000  0.43000000  1.0
  Rh0+  Rh8  1  0.64400000  0.25000000  0.92000000  1.0
  Rh0+  Rh9  1  0.14400000  0.25000000  0.58000000  1.0
  Rh0+  Rh10  1  0.35600000  0.75000000  0.08000000  1.0
  Rh0+  Rh11  1  0.85600000  0.75000000  0.42000000  1.0
