# generated using pymatgen
data_Pd7Se2
_symmetry_space_group_name_H-M   'P 1'
_cell_length_a   9.44100000
_cell_length_b   5.37000000
_cell_length_c   5.49500000
_cell_angle_alpha   90.00000000
_cell_angle_beta   93.61000000
_cell_angle_gamma   90.00000000
_symmetry_Int_Tables_number   1
_chemical_formula_structural   Pd7Se2
_chemical_formula_sum   'Pd14 Se4'
_cell_volume   278.03366017
_cell_formula_units_Z   2
loop_
 _symmetry_equiv_pos_site_id
 _symmetry_equiv_pos_as_xyz
  1  'x, y, z'
loop_
 _atom_type_symbol
 _atom_type_oxidation_number
  Pd0+  0.0
  Se0+  0.0
loop_
 _atom_site_type_symbol
 _atom_site_label
 _atom_site_symmetry_multiplicity
 _atom_site_fract_x
 _atom_site_fract_y
 _atom_site_fract_z
 _atom_site_occupancy
  Pd0+  Pd0  1  0.00000000  0.00000000  0.50000000  1.0
  Pd0+  Pd1  1  0.50000000  0.50000000  0.50000000  1.0
  Pd0+  Pd2  1  0.92738000  0.57916000  0.20758000  1.0
  Pd0+  Pd3  1  0.57262000  0.07916000  0.79242000  1.0
  Pd0+  Pd4  1  0.07262000  0.42084000  0.79242000  1.0
  Pd0+  Pd5  1  0.42738000  0.92084000  0.20758000  1.0
  Pd0+  Pd6  1  0.85143000  0.09849000  0.03078000  1.0
  Pd0+  Pd7  1  0.64857000  0.59849000  0.96922000  1.0
  Pd0+  Pd8  1  0.14857000  0.90151000  0.96922000  1.0
  Pd0+  Pd9  1  0.35143000  0.40151000  0.03078000  1.0
  Pd0+  Pd10  1  0.70870000  0.84276000  0.42762000  1.0
  Pd0+  Pd11  1  0.79130000  0.34276000  0.57238000  1.0
  Pd0+  Pd12  1  0.29130000  0.15724000  0.57238000  1.0
  Pd0+  Pd13  1  0.20870000  0.65724000  0.42762000  1.0
  Se0+  Se14  1  0.62188000  0.22825000  0.22675000  1.0
  Se0+  Se15  1  0.87812000  0.72825000  0.77325000  1.0
  Se0+  Se16  1  0.37812000  0.77175000  0.77325000  1.0
  Se0+  Se17  1  0.12188000  0.27175000  0.22675000  1.0
