# generated using pymatgen
data_Y3Rh
_symmetry_space_group_name_H-M   'P 1'
_cell_length_a   7.13800000
_cell_length_b   9.43800000
_cell_length_c   6.31900000
_cell_angle_alpha   90.00000000
_cell_angle_beta   90.00000000
_cell_angle_gamma   90.00000000
_symmetry_Int_Tables_number   1
_chemical_formula_structural   Y3Rh
_chemical_formula_sum   'Y12 Rh4'
_cell_volume   425.70119764
_cell_formula_units_Z   4
loop_
 _symmetry_equiv_pos_site_id
 _symmetry_equiv_pos_as_xyz
  1  'x, y, z'
loop_
 _atom_type_symbol
 _atom_type_oxidation_number
  Y0+  0.0
  Rh0+  0.0
loop_
 _atom_site_type_symbol
 _atom_site_label
 _atom_site_symmetry_multiplicity
 _atom_site_fract_x
 _atom_site_fract_y
 _atom_site_fract_z
 _atom_site_occupancy
  Y0+  Y0  1  0.68000000  0.06100000  0.33300000  1.0
  Y0+  Y1  1  0.18000000  0.43900000  0.16700000  1.0
  Y0+  Y2  1  0.32000000  0.56100000  0.66700000  1.0
  Y0+  Y3  1  0.82000000  0.93900000  0.83300000  1.0
  Y0+  Y4  1  0.32000000  0.93900000  0.66700000  1.0
  Y0+  Y5  1  0.82000000  0.56100000  0.83300000  1.0
  Y0+  Y6  1  0.68000000  0.43900000  0.33300000  1.0
  Y0+  Y7  1  0.18000000  0.06100000  0.16700000  1.0
  Y0+  Y8  1  0.52100000  0.25000000  0.86200000  1.0
  Y0+  Y9  1  0.02100000  0.25000000  0.63800000  1.0
  Y0+  Y10  1  0.47900000  0.75000000  0.13800000  1.0
  Y0+  Y11  1  0.97900000  0.75000000  0.36200000  1.0
  Rh0+  Rh12  1  0.88900000  0.25000000  0.06300000  1.0
  Rh0+  Rh13  1  0.38900000  0.25000000  0.43700000  1.0
  Rh0+  Rh14  1  0.11100000  0.75000000  0.93700000  1.0
  Rh0+  Rh15  1  0.61100000  0.75000000  0.56300000  1.0
