# generated using pymatgen
data_Pd34Se11
_symmetry_space_group_name_H-M   'P 1'
_cell_length_a   21.41300000
_cell_length_b   5.50400000
_cell_length_c   12.03000000
_cell_angle_alpha   90.00000000
_cell_angle_beta   99.44000000
_cell_angle_gamma   90.00000000
_symmetry_Int_Tables_number   1
_chemical_formula_structural   Pd34Se11
_chemical_formula_sum   'Pd68 Se22'
_cell_volume   1398.62125490
_cell_formula_units_Z   2
loop_
 _symmetry_equiv_pos_site_id
 _symmetry_equiv_pos_as_xyz
  1  'x, y, z'
loop_
 _atom_type_symbol
 _atom_type_oxidation_number
  Pd0+  0.0
  Se0+  0.0
loop_
 _atom_site_type_symbol
 _atom_site_label
 _atom_site_symmetry_multiplicity
 _atom_site_fract_x
 _atom_site_fract_y
 _atom_site_fract_z
 _atom_site_occupancy
  Pd0+  Pd0  1  0.10380000  0.18080000  0.02820000  1.0
  Pd0+  Pd1  1  0.60380000  0.31920000  0.52820000  1.0
  Pd0+  Pd2  1  0.89620000  0.81920000  0.97180000  1.0
  Pd0+  Pd3  1  0.39620000  0.68080000  0.47180000  1.0
  Pd0+  Pd4  1  0.02110000  0.61250000  0.90730000  1.0
  Pd0+  Pd5  1  0.52110000  0.88750000  0.40730000  1.0
  Pd0+  Pd6  1  0.97890000  0.38750000  0.09270000  1.0
  Pd0+  Pd7  1  0.47890000  0.11250000  0.59270000  1.0
  Pd0+  Pd8  1  0.02110000  0.12440000  0.81440000  1.0
  Pd0+  Pd9  1  0.52110000  0.37560000  0.31440000  1.0
  Pd0+  Pd10  1  0.97890000  0.87560000  0.18560000  1.0
  Pd0+  Pd11  1  0.47890000  0.62440000  0.68560000  1.0
  Pd0+  Pd12  1  0.22450000  0.29450000  0.96400000  1.0
  Pd0+  Pd13  1  0.72450000  0.20550000  0.46400000  1.0
  Pd0+  Pd14  1  0.77550000  0.70550000  0.03600000  1.0
  Pd0+  Pd15  1  0.27550000  0.79450000  0.53600000  1.0
  Pd0+  Pd16  1  0.14340000  0.91940000  0.84250000  1.0
  Pd0+  Pd17  1  0.64340000  0.58060000  0.34250000  1.0
  Pd0+  Pd18  1  0.85660000  0.08060000  0.15750000  1.0
  Pd0+  Pd19  1  0.35660000  0.41940000  0.65750000  1.0
  Pd0+  Pd20  1  0.12930000  0.40910000  0.77310000  1.0
  Pd0+  Pd21  1  0.62930000  0.09090000  0.27310000  1.0
  Pd0+  Pd22  1  0.87070000  0.59090000  0.22690000  1.0
  Pd0+  Pd23  1  0.37070000  0.90910000  0.72690000  1.0
  Pd0+  Pd24  1  0.34390000  0.24660000  0.89060000  1.0
  Pd0+  Pd25  1  0.84390000  0.25340000  0.39060000  1.0
  Pd0+  Pd26  1  0.65610000  0.75340000  0.10940000  1.0
  Pd0+  Pd27  1  0.15610000  0.74660000  0.60940000  1.0
  Pd0+  Pd28  1  0.32530000  0.60970000  0.04790000  1.0
  Pd0+  Pd29  1  0.82530000  0.89030000  0.54790000  1.0
  Pd0+  Pd30  1  0.67470000  0.39030000  0.95210000  1.0
  Pd0+  Pd31  1  0.17470000  0.10970000  0.45210000  1.0
  Pd0+  Pd32  1  0.25690000  0.58560000  0.78070000  1.0
  Pd0+  Pd33  1  0.75690000  0.91440000  0.28070000  1.0
  Pd0+  Pd34  1  0.74310000  0.41440000  0.21930000  1.0
  Pd0+  Pd35  1  0.24310000  0.08560000  0.71930000  1.0
  Pd0+  Pd36  1  0.46620000  0.22280000  0.82490000  1.0
  Pd0+  Pd37  1  0.96620000  0.27720000  0.32490000  1.0
  Pd0+  Pd38  1  0.53380000  0.77720000  0.17510000  1.0
  Pd0+  Pd39  1  0.03380000  0.72280000  0.67510000  1.0
  Pd0+  Pd40  1  0.43360000  0.91580000  0.99720000  1.0
  Pd0+  Pd41  1  0.93360000  0.58420000  0.49720000  1.0
  Pd0+  Pd42  1  0.56640000  0.08420000  0.00280000  1.0
  Pd0+  Pd43  1  0.06640000  0.41580000  0.50280000  1.0
  Pd0+  Pd44  1  0.41440000  0.70280000  0.24860000  1.0
  Pd0+  Pd45  1  0.91440000  0.79720000  0.74860000  1.0
  Pd0+  Pd46  1  0.58560000  0.29720000  0.75140000  1.0
  Pd0+  Pd47  1  0.08560000  0.20280000  0.25140000  1.0
  Pd0+  Pd48  1  0.40480000  0.18350000  0.36250000  1.0
  Pd0+  Pd49  1  0.90480000  0.31650000  0.86250000  1.0
  Pd0+  Pd50  1  0.59520000  0.81650000  0.63750000  1.0
  Pd0+  Pd51  1  0.09520000  0.68350000  0.13750000  1.0
  Pd0+  Pd52  1  0.45070000  0.42170000  0.06030000  1.0
  Pd0+  Pd53  1  0.95070000  0.07830000  0.56030000  1.0
  Pd0+  Pd54  1  0.54930000  0.57830000  0.93970000  1.0
  Pd0+  Pd55  1  0.04930000  0.92170000  0.43970000  1.0
  Pd0+  Pd56  1  0.20850000  0.35560000  0.19170000  1.0
  Pd0+  Pd57  1  0.70850000  0.14440000  0.69170000  1.0
  Pd0+  Pd58  1  0.79150000  0.64440000  0.80830000  1.0
  Pd0+  Pd59  1  0.29150000  0.85560000  0.30830000  1.0
  Pd0+  Pd60  1  0.28580000  0.34890000  0.41370000  1.0
  Pd0+  Pd61  1  0.78580000  0.15110000  0.91370000  1.0
  Pd0+  Pd62  1  0.71420000  0.65110000  0.58630000  1.0
  Pd0+  Pd63  1  0.21420000  0.84890000  0.08630000  1.0
  Pd0+  Pd64  1  0.33450000  0.09420000  0.12280000  1.0
  Pd0+  Pd65  1  0.83450000  0.40580000  0.62280000  1.0
  Pd0+  Pd66  1  0.66550000  0.90580000  0.87720000  1.0
  Pd0+  Pd67  1  0.16550000  0.59420000  0.37720000  1.0
  Se0+  Se68  1  0.00000000  0.00000000  0.00000000  1.0
  Se0+  Se69  1  0.50000000  0.50000000  0.50000000  1.0
  Se0+  Se70  1  0.13860000  0.57630000  0.96450000  1.0
  Se0+  Se71  1  0.63860000  0.92370000  0.46450000  1.0
  Se0+  Se72  1  0.86140000  0.42370000  0.03550000  1.0
  Se0+  Se73  1  0.36140000  0.07630000  0.53550000  1.0
  Se0+  Se74  1  0.27410000  0.91490000  0.91610000  1.0
  Se0+  Se75  1  0.77410000  0.58510000  0.41610000  1.0
  Se0+  Se76  1  0.72590000  0.08510000  0.08390000  1.0
  Se0+  Se77  1  0.22590000  0.41490000  0.58390000  1.0
  Se0+  Se78  1  0.41130000  0.58810000  0.86140000  1.0
  Se0+  Se79  1  0.91130000  0.91190000  0.36140000  1.0
  Se0+  Se80  1  0.58870000  0.41190000  0.13860000  1.0
  Se0+  Se81  1  0.08870000  0.08810000  0.63860000  1.0
  Se0+  Se82  1  0.45600000  0.08440000  0.19020000  1.0
  Se0+  Se83  1  0.95600000  0.41560000  0.69020000  1.0
  Se0+  Se84  1  0.54400000  0.91560000  0.80980000  1.0
  Se0+  Se85  1  0.04400000  0.58440000  0.30980000  1.0
  Se0+  Se86  1  0.32180000  0.45030000  0.23650000  1.0
  Se0+  Se87  1  0.82180000  0.04970000  0.73650000  1.0
  Se0+  Se88  1  0.67820000  0.54970000  0.76350000  1.0
  Se0+  Se89  1  0.17820000  0.95030000  0.26350000  1.0
