# generated using pymatgen
data_YRh3
_symmetry_space_group_name_H-M   'P 1'
_cell_length_a   5.22200000
_cell_length_b   5.22200000
_cell_length_c   17.36000000
_cell_angle_alpha   90.00000000
_cell_angle_beta   90.00000000
_cell_angle_gamma   120.00000000
_symmetry_Int_Tables_number   1
_chemical_formula_structural   YRh3
_chemical_formula_sum   'Y6 Rh18'
_cell_volume   409.97189705
_cell_formula_units_Z   6
loop_
 _symmetry_equiv_pos_site_id
 _symmetry_equiv_pos_as_xyz
  1  'x, y, z'
loop_
 _atom_type_symbol
 _atom_type_oxidation_number
  Y0+  0.0
  Rh0+  0.0
loop_
 _atom_site_type_symbol
 _atom_site_label
 _atom_site_symmetry_multiplicity
 _atom_site_fract_x
 _atom_site_fract_y
 _atom_site_fract_z
 _atom_site_occupancy
  Y0+  Y0  1  0.33333333  0.66666667  0.95800000  1.0
  Y0+  Y1  1  0.66666667  0.33333333  0.04200000  1.0
  Y0+  Y2  1  0.66666667  0.33333333  0.45800000  1.0
  Y0+  Y3  1  0.33333333  0.66666667  0.54200000  1.0
  Y0+  Y4  1  0.33333333  0.66666667  0.75000000  1.0
  Y0+  Y5  1  0.66666667  0.33333333  0.25000000  1.0
  Rh0+  Rh6  1  0.16700000  0.83300000  0.37300000  1.0
  Rh0+  Rh7  1  0.16700000  0.33400000  0.37300000  1.0
  Rh0+  Rh8  1  0.66600000  0.83300000  0.37300000  1.0
  Rh0+  Rh9  1  0.83300000  0.16700000  0.62700000  1.0
  Rh0+  Rh10  1  0.83300000  0.66600000  0.62700000  1.0
  Rh0+  Rh11  1  0.33400000  0.16700000  0.62700000  1.0
  Rh0+  Rh12  1  0.83300000  0.16700000  0.87300000  1.0
  Rh0+  Rh13  1  0.83300000  0.66600000  0.87300000  1.0
  Rh0+  Rh14  1  0.33400000  0.16700000  0.87300000  1.0
  Rh0+  Rh15  1  0.16700000  0.83300000  0.12700000  1.0
  Rh0+  Rh16  1  0.16700000  0.33400000  0.12700000  1.0
  Rh0+  Rh17  1  0.66600000  0.83300000  0.12700000  1.0
  Rh0+  Rh18  1  0.33333333  0.66666667  0.25000000  1.0
  Rh0+  Rh19  1  0.66666667  0.33333333  0.75000000  1.0
  Rh0+  Rh20  1  0.00000000  0.00000000  0.25000000  1.0
  Rh0+  Rh21  1  0.00000000  0.00000000  0.75000000  1.0
  Rh0+  Rh22  1  0.00000000  0.00000000  0.50000000  1.0
  Rh0+  Rh23  1  0.00000000  0.00000000  0.00000000  1.0
