# generated using pymatgen
data_Zr3Rh
_symmetry_space_group_name_H-M   'P 1'
_cell_length_a   10.80200000
_cell_length_b   10.80200000
_cell_length_c   5.62900000
_cell_angle_alpha   90.00000000
_cell_angle_beta   90.00000000
_cell_angle_gamma   90.00000000
_symmetry_Int_Tables_number   1
_chemical_formula_structural   Zr3Rh
_chemical_formula_sum   'Zr24 Rh8'
_cell_volume   656.80975532
_cell_formula_units_Z   8
loop_
 _symmetry_equiv_pos_site_id
 _symmetry_equiv_pos_as_xyz
  1  'x, y, z'
loop_
 _atom_type_symbol
 _atom_type_oxidation_number
  Zr0+  0.0
  Rh0+  0.0
loop_
 _atom_site_type_symbol
 _atom_site_label
 _atom_site_symmetry_multiplicity
 _atom_site_fract_x
 _atom_site_fract_y
 _atom_site_fract_z
 _atom_site_occupancy
  Zr0+  Zr0  1  0.88800000  0.07700000  0.76100000  1.0
  Zr0+  Zr1  1  0.11200000  0.92300000  0.76100000  1.0
  Zr0+  Zr2  1  0.92300000  0.88800000  0.23900000  1.0
  Zr0+  Zr3  1  0.07700000  0.11200000  0.23900000  1.0
  Zr0+  Zr4  1  0.38800000  0.57700000  0.26100000  1.0
  Zr0+  Zr5  1  0.61200000  0.42300000  0.26100000  1.0
  Zr0+  Zr6  1  0.42300000  0.38800000  0.73900000  1.0
  Zr0+  Zr7  1  0.57700000  0.61200000  0.73900000  1.0
  Zr0+  Zr8  1  0.96800000  0.36500000  0.02400000  1.0
  Zr0+  Zr9  1  0.03200000  0.63500000  0.02400000  1.0
  Zr0+  Zr10  1  0.63500000  0.96800000  0.97600000  1.0
  Zr0+  Zr11  1  0.36500000  0.03200000  0.97600000  1.0
  Zr0+  Zr12  1  0.46800000  0.86500000  0.52400000  1.0
  Zr0+  Zr13  1  0.53200000  0.13500000  0.52400000  1.0
  Zr0+  Zr14  1  0.13500000  0.46800000  0.47600000  1.0
  Zr0+  Zr15  1  0.86500000  0.53200000  0.47600000  1.0
  Zr0+  Zr16  1  0.78000000  0.16900000  0.25200000  1.0
  Zr0+  Zr17  1  0.22000000  0.83100000  0.25200000  1.0
  Zr0+  Zr18  1  0.83100000  0.78000000  0.74800000  1.0
  Zr0+  Zr19  1  0.16900000  0.22000000  0.74800000  1.0
  Zr0+  Zr20  1  0.28000000  0.66900000  0.75200000  1.0
  Zr0+  Zr21  1  0.72000000  0.33100000  0.75200000  1.0
  Zr0+  Zr22  1  0.33100000  0.28000000  0.24800000  1.0
  Zr0+  Zr23  1  0.66900000  0.72000000  0.24800000  1.0
  Rh0+  Rh24  1  0.95100000  0.28600000  0.51900000  1.0
  Rh0+  Rh25  1  0.04900000  0.71400000  0.51900000  1.0
  Rh0+  Rh26  1  0.71400000  0.95100000  0.48100000  1.0
  Rh0+  Rh27  1  0.28600000  0.04900000  0.48100000  1.0
  Rh0+  Rh28  1  0.45100000  0.78600000  0.01900000  1.0
  Rh0+  Rh29  1  0.54900000  0.21400000  0.01900000  1.0
  Rh0+  Rh30  1  0.21400000  0.45100000  0.98100000  1.0
  Rh0+  Rh31  1  0.78600000  0.54900000  0.98100000  1.0
