# generated using pymatgen
data_YSi2Ru3
_symmetry_space_group_name_H-M   'P 1'
_cell_length_a   5.54300000
_cell_length_b   5.54300000
_cell_length_c   7.15200000
_cell_angle_alpha   90.00000000
_cell_angle_beta   90.00000000
_cell_angle_gamma   120.00000000
_symmetry_Int_Tables_number   1
_chemical_formula_structural   YSi2Ru3
_chemical_formula_sum   'Y2 Si4 Ru6'
_cell_volume   190.30399029
_cell_formula_units_Z   2
loop_
 _symmetry_equiv_pos_site_id
 _symmetry_equiv_pos_as_xyz
  1  'x, y, z'
loop_
 _atom_type_symbol
 _atom_type_oxidation_number
  Y0+  0.0
  Si0+  0.0
  Ru0+  0.0
loop_
 _atom_site_type_symbol
 _atom_site_label
 _atom_site_symmetry_multiplicity
 _atom_site_fract_x
 _atom_site_fract_y
 _atom_site_fract_z
 _atom_site_occupancy
  Y0+  Y0  1  0.00000000  0.00000000  0.50000000  1.0
  Y0+  Y1  1  0.00000000  0.00000000  0.00000000  1.0
  Si0+  Si2  1  0.33333333  0.66666667  0.50000000  1.0
  Si0+  Si3  1  0.66666667  0.33333333  0.00000000  1.0
  Si0+  Si4  1  0.66666667  0.33333333  0.50000000  1.0
  Si0+  Si5  1  0.33333333  0.66666667  0.00000000  1.0
  Ru0+  Ru6  1  0.51000000  0.52000000  0.25000000  1.0
  Ru0+  Ru7  1  0.01000000  0.49000000  0.25000000  1.0
  Ru0+  Ru8  1  0.48000000  0.99000000  0.25000000  1.0
  Ru0+  Ru9  1  0.49000000  0.48000000  0.75000000  1.0
  Ru0+  Ru10  1  0.99000000  0.51000000  0.75000000  1.0
  Ru0+  Ru11  1  0.52000000  0.01000000  0.75000000  1.0
