# generated using pymatgen
data_Zr5Sb3
_symmetry_space_group_name_H-M   'P 1'
_cell_length_a   8.53000000
_cell_length_b   8.53000000
_cell_length_c   5.84000000
_cell_angle_alpha   90.00000000
_cell_angle_beta   90.00000000
_cell_angle_gamma   120.00000000
_symmetry_Int_Tables_number   1
_chemical_formula_structural   Zr5Sb3
_chemical_formula_sum   'Zr10 Sb6'
_cell_volume   367.99468076
_cell_formula_units_Z   2
loop_
 _symmetry_equiv_pos_site_id
 _symmetry_equiv_pos_as_xyz
  1  'x, y, z'
loop_
 _atom_type_symbol
 _atom_type_oxidation_number
  Zr0+  0.0
  Sb0+  0.0
loop_
 _atom_site_type_symbol
 _atom_site_label
 _atom_site_symmetry_multiplicity
 _atom_site_fract_x
 _atom_site_fract_y
 _atom_site_fract_z
 _atom_site_occupancy
  Zr0+  Zr0  1  0.66666667  0.33333333  0.50000000  1.0
  Zr0+  Zr1  1  0.33333333  0.66666667  0.50000000  1.0
  Zr0+  Zr2  1  0.33333333  0.66666667  0.00000000  1.0
  Zr0+  Zr3  1  0.66666667  0.33333333  0.00000000  1.0
  Zr0+  Zr4  1  0.75000000  0.75000000  0.25000000  1.0
  Zr0+  Zr5  1  0.25000000  0.00000000  0.25000000  1.0
  Zr0+  Zr6  1  0.00000000  0.25000000  0.25000000  1.0
  Zr0+  Zr7  1  0.25000000  0.25000000  0.75000000  1.0
  Zr0+  Zr8  1  0.75000000  0.00000000  0.75000000  1.0
  Zr0+  Zr9  1  0.00000000  0.75000000  0.75000000  1.0
  Sb0+  Sb10  1  0.39000000  0.39000000  0.25000000  1.0
  Sb0+  Sb11  1  0.61000000  0.00000000  0.25000000  1.0
  Sb0+  Sb12  1  0.00000000  0.61000000  0.25000000  1.0
  Sb0+  Sb13  1  0.61000000  0.61000000  0.75000000  1.0
  Sb0+  Sb14  1  0.39000000  0.00000000  0.75000000  1.0
  Sb0+  Sb15  1  0.00000000  0.39000000  0.75000000  1.0
