# generated using pymatgen
data_TaSe3
_symmetry_space_group_name_H-M   'P 1'
_cell_length_a   10.02000000
_cell_length_b   3.48000000
_cell_length_c   15.65000000
_cell_angle_alpha   90.00000000
_cell_angle_beta   109.60000000
_cell_angle_gamma   90.00000000
_symmetry_Int_Tables_number   1
_chemical_formula_structural   TaSe3
_chemical_formula_sum   'Ta6 Se18'
_cell_volume   514.08945660
_cell_formula_units_Z   6
loop_
 _symmetry_equiv_pos_site_id
 _symmetry_equiv_pos_as_xyz
  1  'x, y, z'
loop_
 _atom_type_symbol
 _atom_type_oxidation_number
  Ta0+  0.0
  Se0+  0.0
loop_
 _atom_site_type_symbol
 _atom_site_label
 _atom_site_symmetry_multiplicity
 _atom_site_fract_x
 _atom_site_fract_y
 _atom_site_fract_z
 _atom_site_occupancy
  Ta0+  Ta0  1  0.65300000  0.25000000  0.11800000  1.0
  Ta0+  Ta1  1  0.34700000  0.75000000  0.88200000  1.0
  Ta0+  Ta2  1  0.31600000  0.75000000  0.20600000  1.0
  Ta0+  Ta3  1  0.68400000  0.25000000  0.79400000  1.0
  Ta0+  Ta4  1  0.29400000  0.25000000  0.46100000  1.0
  Ta0+  Ta5  1  0.70600000  0.75000000  0.53900000  1.0
  Se0+  Se6  1  0.44200000  0.75000000  0.06600000  1.0
  Se0+  Se7  1  0.55800000  0.25000000  0.93400000  1.0
  Se0+  Se8  1  0.83400000  0.75000000  0.08800000  1.0
  Se0+  Se9  1  0.16600000  0.25000000  0.91200000  1.0
  Se0+  Se10  1  0.80400000  0.75000000  0.23900000  1.0
  Se0+  Se11  1  0.19600000  0.25000000  0.76100000  1.0
  Se0+  Se12  1  0.16400000  0.25000000  0.08700000  1.0
  Se0+  Se13  1  0.83600000  0.75000000  0.91300000  1.0
  Se0+  Se14  1  0.17900000  0.25000000  0.27600000  1.0
  Se0+  Se15  1  0.82100000  0.75000000  0.72400000  1.0
  Se0+  Se16  1  0.52700000  0.25000000  0.24900000  1.0
  Se0+  Se17  1  0.47300000  0.75000000  0.75100000  1.0
  Se0+  Se18  1  0.08300000  0.75000000  0.42500000  1.0
  Se0+  Se19  1  0.91700000  0.25000000  0.57500000  1.0
  Se0+  Se20  1  0.44100000  0.75000000  0.40500000  1.0
  Se0+  Se21  1  0.55900000  0.25000000  0.59500000  1.0
  Se0+  Se22  1  0.24400000  0.75000000  0.57600000  1.0
  Se0+  Se23  1  0.75600000  0.25000000  0.42400000  1.0
