# generated using pymatgen
data_TaSi2
_symmetry_space_group_name_H-M   'P 1'
_cell_length_a   4.78300000
_cell_length_b   4.78300000
_cell_length_c   6.56200000
_cell_angle_alpha   90.00000000
_cell_angle_beta   90.00000000
_cell_angle_gamma   120.00000000
_symmetry_Int_Tables_number   1
_chemical_formula_structural   TaSi2
_chemical_formula_sum   'Ta3 Si6'
_cell_volume   130.00726425
_cell_formula_units_Z   3
loop_
 _symmetry_equiv_pos_site_id
 _symmetry_equiv_pos_as_xyz
  1  'x, y, z'
loop_
 _atom_type_symbol
 _atom_type_oxidation_number
  Ta0+  0.0
  Si0+  0.0
loop_
 _atom_site_type_symbol
 _atom_site_label
 _atom_site_symmetry_multiplicity
 _atom_site_fract_x
 _atom_site_fract_y
 _atom_site_fract_z
 _atom_site_occupancy
  Ta0+  Ta0  1  0.50000000  0.50000000  0.83333333  1.0
  Ta0+  Ta1  1  0.50000000  0.00000000  0.50000000  1.0
  Ta0+  Ta2  1  0.00000000  0.50000000  0.16666667  1.0
  Si0+  Si3  1  0.16000000  0.84000000  0.83333333  1.0
  Si0+  Si4  1  0.16000000  0.32000000  0.50000000  1.0
  Si0+  Si5  1  0.68000000  0.84000000  0.16666667  1.0
  Si0+  Si6  1  0.84000000  0.16000000  0.83333333  1.0
  Si0+  Si7  1  0.84000000  0.68000000  0.50000000  1.0
  Si0+  Si8  1  0.32000000  0.16000000  0.16666667  1.0
