# generated using pymatgen
data_Si2W3
_symmetry_space_group_name_H-M   'P 1'
_cell_length_a   9.56000000
_cell_length_b   9.56000000
_cell_length_c   4.94000000
_cell_angle_alpha   90.00000000
_cell_angle_beta   90.00000000
_cell_angle_gamma   90.00000000
_symmetry_Int_Tables_number   1
_chemical_formula_structural   Si2W3
_chemical_formula_sum   'Si4 W6'
_cell_volume   451.48438400
_cell_formula_units_Z   2
loop_
 _symmetry_equiv_pos_site_id
 _symmetry_equiv_pos_as_xyz
  1  'x, y, z'
loop_
 _atom_type_symbol
 _atom_type_oxidation_number
  Si0+  0.0
  W0+  0.0
loop_
 _atom_site_type_symbol
 _atom_site_label
 _atom_site_symmetry_multiplicity
 _atom_site_fract_x
 _atom_site_fract_y
 _atom_site_fract_z
 _atom_site_occupancy
  Si0+  Si0  1  0.61000000  0.11000000  0.00000000  1.0
  Si0+  Si1  1  0.39000000  0.89000000  0.00000000  1.0
  Si0+  Si2  1  0.89000000  0.61000000  0.00000000  1.0
  Si0+  Si3  1  0.11000000  0.39000000  0.00000000  1.0
  W0+  W4  1  0.50000000  0.50000000  0.00000000  1.0
  W0+  W5  1  0.00000000  0.00000000  0.00000000  1.0
  W0+  W6  1  0.18000000  0.68000000  0.50000000  1.0
  W0+  W7  1  0.82000000  0.32000000  0.50000000  1.0
  W0+  W8  1  0.32000000  0.18000000  0.50000000  1.0
  W0+  W9  1  0.68000000  0.82000000  0.50000000  1.0
