# generated using pymatgen
data_AlCu
_symmetry_space_group_name_H-M   'P 1'
_cell_length_a   12.06600000
_cell_length_b   4.10500000
_cell_length_c   6.91300000
_cell_angle_alpha   90.00000000
_cell_angle_beta   55.04000000
_cell_angle_gamma   90.00000000
_symmetry_Int_Tables_number   1
_chemical_formula_structural   AlCu
_chemical_formula_sum   'Al10 Cu10'
_cell_volume   280.62069786
_cell_formula_units_Z   10
loop_
 _symmetry_equiv_pos_site_id
 _symmetry_equiv_pos_as_xyz
  1  'x, y, z'
loop_
 _atom_type_symbol
 _atom_type_oxidation_number
  Al0+  0.0
  Cu0+  0.0
loop_
 _atom_site_type_symbol
 _atom_site_label
 _atom_site_symmetry_multiplicity
 _atom_site_fract_x
 _atom_site_fract_y
 _atom_site_fract_z
 _atom_site_occupancy
  Al0+  Al0  1  0.00000000  0.50000000  0.50000000  1.0
  Al0+  Al1  1  0.50000000  0.00000000  0.50000000  1.0
  Al0+  Al2  1  0.84500000  0.00000000  0.45700000  1.0
  Al0+  Al3  1  0.15500000  0.00000000  0.54300000  1.0
  Al0+  Al4  1  0.34500000  0.50000000  0.45700000  1.0
  Al0+  Al5  1  0.65500000  0.50000000  0.54300000  1.0
  Al0+  Al6  1  0.61800000  0.00000000  0.98700000  1.0
  Al0+  Al7  1  0.38200000  0.00000000  0.01300000  1.0
  Al0+  Al8  1  0.11800000  0.50000000  0.98700000  1.0
  Al0+  Al9  1  0.88200000  0.50000000  0.01300000  1.0
  Cu0+  Cu10  1  0.00000000  0.00000000  0.00000000  1.0
  Cu0+  Cu11  1  0.50000000  0.50000000  0.00000000  1.0
  Cu0+  Cu12  1  0.74400000  0.00000000  0.24000000  1.0
  Cu0+  Cu13  1  0.25600000  0.00000000  0.76000000  1.0
  Cu0+  Cu14  1  0.24400000  0.50000000  0.24000000  1.0
  Cu0+  Cu15  1  0.75600000  0.50000000  0.76000000  1.0
  Cu0+  Cu16  1  0.89100000  0.00000000  0.77200000  1.0
  Cu0+  Cu17  1  0.10900000  0.00000000  0.22800000  1.0
  Cu0+  Cu18  1  0.39100000  0.50000000  0.77200000  1.0
  Cu0+  Cu19  1  0.60900000  0.50000000  0.22800000  1.0
