# generated using pymatgen
data_Mo4P3
_symmetry_space_group_name_H-M   'P 1'
_cell_length_a   12.43160000
_cell_length_b   3.15810000
_cell_length_c   20.44680000
_cell_angle_alpha   90.00000000
_cell_angle_beta   90.00000000
_cell_angle_gamma   90.00000000
_symmetry_Int_Tables_number   1
_chemical_formula_structural   Mo4P3
_chemical_formula_sum   'Mo32 P24'
_cell_volume   802.74619263
_cell_formula_units_Z   8
loop_
 _symmetry_equiv_pos_site_id
 _symmetry_equiv_pos_as_xyz
  1  'x, y, z'
loop_
 _atom_type_symbol
 _atom_type_oxidation_number
  Mo0+  0.0
  P0+  0.0
loop_
 _atom_site_type_symbol
 _atom_site_label
 _atom_site_symmetry_multiplicity
 _atom_site_fract_x
 _atom_site_fract_y
 _atom_site_fract_z
 _atom_site_occupancy
  Mo0+  Mo0  1  0.87920000  0.25000000  0.31102000  1.0
  Mo0+  Mo1  1  0.37920000  0.25000000  0.18898000  1.0
  Mo0+  Mo2  1  0.12080000  0.75000000  0.68898000  1.0
  Mo0+  Mo3  1  0.62080000  0.75000000  0.81102000  1.0
  Mo0+  Mo4  1  0.99116000  0.25000000  0.17273000  1.0
  Mo0+  Mo5  1  0.49116000  0.25000000  0.32727000  1.0
  Mo0+  Mo6  1  0.00884000  0.75000000  0.82727000  1.0
  Mo0+  Mo7  1  0.50884000  0.75000000  0.67273000  1.0
  Mo0+  Mo8  1  0.09992000  0.25000000  0.02726000  1.0
  Mo0+  Mo9  1  0.59992000  0.25000000  0.47274000  1.0
  Mo0+  Mo10  1  0.90008000  0.75000000  0.97274000  1.0
  Mo0+  Mo11  1  0.40008000  0.75000000  0.52726000  1.0
  Mo0+  Mo12  1  0.20185000  0.25000000  0.88652000  1.0
  Mo0+  Mo13  1  0.70185000  0.25000000  0.61348000  1.0
  Mo0+  Mo14  1  0.79815000  0.75000000  0.11348000  1.0
  Mo0+  Mo15  1  0.29815000  0.75000000  0.38652000  1.0
  Mo0+  Mo16  1  0.30564000  0.25000000  0.72677000  1.0
  Mo0+  Mo17  1  0.80564000  0.25000000  0.77323000  1.0
  Mo0+  Mo18  1  0.69436000  0.75000000  0.27323000  1.0
  Mo0+  Mo19  1  0.19436000  0.75000000  0.22677000  1.0
  Mo0+  Mo20  1  0.79763000  0.75000000  0.41600000  1.0
  Mo0+  Mo21  1  0.29763000  0.75000000  0.08400000  1.0
  Mo0+  Mo22  1  0.20237000  0.25000000  0.58400000  1.0
  Mo0+  Mo23  1  0.70237000  0.25000000  0.91600000  1.0
  Mo0+  Mo24  1  0.61583000  0.25000000  0.14809000  1.0
  Mo0+  Mo25  1  0.11583000  0.25000000  0.35191000  1.0
  Mo0+  Mo26  1  0.38417000  0.75000000  0.85191000  1.0
  Mo0+  Mo27  1  0.88417000  0.75000000  0.64809000  1.0
  Mo0+  Mo28  1  0.59510000  0.75000000  0.03340000  1.0
  Mo0+  Mo29  1  0.09510000  0.75000000  0.46660000  1.0
  Mo0+  Mo30  1  0.40490000  0.25000000  0.96660000  1.0
  Mo0+  Mo31  1  0.90490000  0.25000000  0.53340000  1.0
  P0+  P32  1  0.67938000  0.25000000  0.36313000  1.0
  P0+  P33  1  0.17938000  0.25000000  0.13687000  1.0
  P0+  P34  1  0.32062000  0.75000000  0.63687000  1.0
  P0+  P35  1  0.82062000  0.75000000  0.86313000  1.0
  P0+  P36  1  0.75424000  0.25000000  0.02781000  1.0
  P0+  P37  1  0.25424000  0.25000000  0.47219000  1.0
  P0+  P38  1  0.24576000  0.75000000  0.97219000  1.0
  P0+  P39  1  0.74576000  0.75000000  0.52781000  1.0
  P0+  P40  1  0.98229000  0.75000000  0.08130000  1.0
  P0+  P41  1  0.48229000  0.75000000  0.41870000  1.0
  P0+  P42  1  0.01771000  0.25000000  0.91870000  1.0
  P0+  P43  1  0.51771000  0.25000000  0.58130000  1.0
  P0+  P44  1  0.95909000  0.25000000  0.41930000  1.0
  P0+  P45  1  0.45909000  0.25000000  0.08070000  1.0
  P0+  P46  1  0.04091000  0.75000000  0.58070000  1.0
  P0+  P47  1  0.54091000  0.75000000  0.91930000  1.0
  P0+  P48  1  0.80046000  0.25000000  0.20511000  1.0
  P0+  P49  1  0.30046000  0.25000000  0.29489000  1.0
  P0+  P50  1  0.19954000  0.75000000  0.79489000  1.0
  P0+  P51  1  0.69954000  0.75000000  0.70511000  1.0
  P0+  P52  1  0.51556000  0.75000000  0.22552000  1.0
  P0+  P53  1  0.01556000  0.75000000  0.27448000  1.0
  P0+  P54  1  0.48444000  0.25000000  0.77448000  1.0
  P0+  P55  1  0.98444000  0.25000000  0.72552000  1.0
