# generated using pymatgen
data_AsRh
_symmetry_space_group_name_H-M   'P 1'
_cell_length_a   5.60300000
_cell_length_b   3.58610000
_cell_length_c   6.07080000
_cell_angle_alpha   90.00000000
_cell_angle_beta   90.00000000
_cell_angle_gamma   90.00000000
_symmetry_Int_Tables_number   1
_chemical_formula_structural   AsRh
_chemical_formula_sum   'As4 Rh4'
_cell_volume   121.98008842
_cell_formula_units_Z   4
loop_
 _symmetry_equiv_pos_site_id
 _symmetry_equiv_pos_as_xyz
  1  'x, y, z'
loop_
 _atom_type_symbol
 _atom_type_oxidation_number
  As3-  -3.0
  Rh3+  3.0
loop_
 _atom_site_type_symbol
 _atom_site_label
 _atom_site_symmetry_multiplicity
 _atom_site_fract_x
 _atom_site_fract_y
 _atom_site_fract_z
 _atom_site_occupancy
  As3-  As0  1  0.71000000  0.25000000  0.92000000  1.0
  As3-  As1  1  0.21000000  0.25000000  0.58000000  1.0
  As3-  As2  1  0.29000000  0.75000000  0.08000000  1.0
  As3-  As3  1  0.79000000  0.75000000  0.42000000  1.0
  Rh3+  Rh4  1  0.55000000  0.25000000  0.29000000  1.0
  Rh3+  Rh5  1  0.05000000  0.25000000  0.21000000  1.0
  Rh3+  Rh6  1  0.45000000  0.75000000  0.71000000  1.0
  Rh3+  Rh7  1  0.95000000  0.75000000  0.79000000  1.0
