# generated using pymatgen
data_Y6Al43Mo4
_symmetry_space_group_name_H-M   'P 1'
_cell_length_a   10.99000000
_cell_length_b   10.99000000
_cell_length_c   17.70800000
_cell_angle_alpha   90.00000000
_cell_angle_beta   90.00000000
_cell_angle_gamma   120.00000000
_symmetry_Int_Tables_number   1
_chemical_formula_structural   Y6Al43Mo4
_chemical_formula_sum   'Y12 Al86 Mo8'
_cell_volume   1852.23262631
_cell_formula_units_Z   2
loop_
 _symmetry_equiv_pos_site_id
 _symmetry_equiv_pos_as_xyz
  1  'x, y, z'
loop_
 _atom_type_symbol
 _atom_type_oxidation_number
  Y0+  0.0
  Al0+  0.0
  Mo0+  0.0
loop_
 _atom_site_type_symbol
 _atom_site_label
 _atom_site_symmetry_multiplicity
 _atom_site_fract_x
 _atom_site_fract_y
 _atom_site_fract_z
 _atom_site_occupancy
  Y0+  Y0  1  0.46900000  0.46900000  0.40500000  1.0
  Y0+  Y1  1  0.53100000  0.00000000  0.40500000  1.0
  Y0+  Y2  1  0.00000000  0.53100000  0.40500000  1.0
  Y0+  Y3  1  0.53100000  0.53100000  0.59500000  1.0
  Y0+  Y4  1  0.46900000  0.00000000  0.59500000  1.0
  Y0+  Y5  1  0.00000000  0.46900000  0.59500000  1.0
  Y0+  Y6  1  0.53100000  0.53100000  0.90500000  1.0
  Y0+  Y7  1  0.46900000  0.00000000  0.90500000  1.0
  Y0+  Y8  1  0.00000000  0.46900000  0.90500000  1.0
  Y0+  Y9  1  0.46900000  0.46900000  0.09500000  1.0
  Y0+  Y10  1  0.53100000  0.00000000  0.09500000  1.0
  Y0+  Y11  1  0.00000000  0.53100000  0.09500000  1.0
  Al0+  Al12  1  0.84200000  0.23700000  0.33700000  1.0
  Al0+  Al13  1  0.76300000  0.60500000  0.33700000  1.0
  Al0+  Al14  1  0.39500000  0.15800000  0.33700000  1.0
  Al0+  Al15  1  0.23700000  0.84200000  0.33700000  1.0
  Al0+  Al16  1  0.60500000  0.76300000  0.33700000  1.0
  Al0+  Al17  1  0.15800000  0.39500000  0.33700000  1.0
  Al0+  Al18  1  0.15800000  0.76300000  0.66300000  1.0
  Al0+  Al19  1  0.23700000  0.39500000  0.66300000  1.0
  Al0+  Al20  1  0.60500000  0.84200000  0.66300000  1.0
  Al0+  Al21  1  0.76300000  0.15800000  0.66300000  1.0
  Al0+  Al22  1  0.39500000  0.23700000  0.66300000  1.0
  Al0+  Al23  1  0.84200000  0.60500000  0.66300000  1.0
  Al0+  Al24  1  0.15800000  0.76300000  0.83700000  1.0
  Al0+  Al25  1  0.23700000  0.39500000  0.83700000  1.0
  Al0+  Al26  1  0.60500000  0.84200000  0.83700000  1.0
  Al0+  Al27  1  0.76300000  0.15800000  0.83700000  1.0
  Al0+  Al28  1  0.39500000  0.23700000  0.83700000  1.0
  Al0+  Al29  1  0.84200000  0.60500000  0.83700000  1.0
  Al0+  Al30  1  0.84200000  0.23700000  0.16300000  1.0
  Al0+  Al31  1  0.76300000  0.60500000  0.16300000  1.0
  Al0+  Al32  1  0.39500000  0.15800000  0.16300000  1.0
  Al0+  Al33  1  0.23700000  0.84200000  0.16300000  1.0
  Al0+  Al34  1  0.60500000  0.76300000  0.16300000  1.0
  Al0+  Al35  1  0.15800000  0.39500000  0.16300000  1.0
  Al0+  Al36  1  0.84000000  0.84000000  0.88600000  1.0
  Al0+  Al37  1  0.16000000  0.00000000  0.88600000  1.0
  Al0+  Al38  1  0.00000000  0.16000000  0.88600000  1.0
  Al0+  Al39  1  0.16000000  0.16000000  0.11400000  1.0
  Al0+  Al40  1  0.84000000  0.00000000  0.11400000  1.0
  Al0+  Al41  1  0.00000000  0.84000000  0.11400000  1.0
  Al0+  Al42  1  0.16000000  0.16000000  0.38600000  1.0
  Al0+  Al43  1  0.84000000  0.00000000  0.38600000  1.0
  Al0+  Al44  1  0.00000000  0.84000000  0.38600000  1.0
  Al0+  Al45  1  0.84000000  0.84000000  0.61400000  1.0
  Al0+  Al46  1  0.16000000  0.00000000  0.61400000  1.0
  Al0+  Al47  1  0.00000000  0.16000000  0.61400000  1.0
  Al0+  Al48  1  0.74500000  0.74500000  0.47000000  1.0
  Al0+  Al49  1  0.25500000  0.00000000  0.47000000  1.0
  Al0+  Al50  1  0.00000000  0.25500000  0.47000000  1.0
  Al0+  Al51  1  0.25500000  0.25500000  0.53000000  1.0
  Al0+  Al52  1  0.74500000  0.00000000  0.53000000  1.0
  Al0+  Al53  1  0.00000000  0.74500000  0.53000000  1.0
  Al0+  Al54  1  0.25500000  0.25500000  0.97000000  1.0
  Al0+  Al55  1  0.74500000  0.00000000  0.97000000  1.0
  Al0+  Al56  1  0.00000000  0.74500000  0.97000000  1.0
  Al0+  Al57  1  0.74500000  0.74500000  0.03000000  1.0
  Al0+  Al58  1  0.25500000  0.00000000  0.03000000  1.0
  Al0+  Al59  1  0.00000000  0.25500000  0.03000000  1.0
  Al0+  Al60  1  0.85300000  0.44900000  0.25000000  1.0
  Al0+  Al61  1  0.55100000  0.40400000  0.25000000  1.0
  Al0+  Al62  1  0.59600000  0.14700000  0.25000000  1.0
  Al0+  Al63  1  0.44900000  0.85300000  0.25000000  1.0
  Al0+  Al64  1  0.40400000  0.55100000  0.25000000  1.0
  Al0+  Al65  1  0.14700000  0.59600000  0.25000000  1.0
  Al0+  Al66  1  0.14700000  0.55100000  0.75000000  1.0
  Al0+  Al67  1  0.44900000  0.59600000  0.75000000  1.0
  Al0+  Al68  1  0.40400000  0.85300000  0.75000000  1.0
  Al0+  Al69  1  0.55100000  0.14700000  0.75000000  1.0
  Al0+  Al70  1  0.59600000  0.44900000  0.75000000  1.0
  Al0+  Al71  1  0.85300000  0.40400000  0.75000000  1.0
  Al0+  Al72  1  0.75300000  0.24700000  0.50000000  1.0
  Al0+  Al73  1  0.75300000  0.50600000  0.50000000  1.0
  Al0+  Al74  1  0.49400000  0.24700000  0.50000000  1.0
  Al0+  Al75  1  0.24700000  0.75300000  0.50000000  1.0
  Al0+  Al76  1  0.50600000  0.75300000  0.50000000  1.0
  Al0+  Al77  1  0.24700000  0.49400000  0.50000000  1.0
  Al0+  Al78  1  0.24700000  0.75300000  0.00000000  1.0
  Al0+  Al79  1  0.24700000  0.49400000  0.00000000  1.0
  Al0+  Al80  1  0.50600000  0.75300000  0.00000000  1.0
  Al0+  Al81  1  0.75300000  0.24700000  0.00000000  1.0
  Al0+  Al82  1  0.49400000  0.24700000  0.00000000  1.0
  Al0+  Al83  1  0.75300000  0.50600000  0.00000000  1.0
  Al0+  Al84  1  0.66666667  0.33333333  0.37400000  1.0
  Al0+  Al85  1  0.33333333  0.66666667  0.37400000  1.0
  Al0+  Al86  1  0.33333333  0.66666667  0.62600000  1.0
  Al0+  Al87  1  0.66666667  0.33333333  0.62600000  1.0
  Al0+  Al88  1  0.33333333  0.66666667  0.87400000  1.0
  Al0+  Al89  1  0.66666667  0.33333333  0.87400000  1.0
  Al0+  Al90  1  0.66666667  0.33333333  0.12600000  1.0
  Al0+  Al91  1  0.33333333  0.66666667  0.12600000  1.0
  Al0+  Al92  1  0.85200000  0.85200000  0.25000000  1.0
  Al0+  Al93  1  0.14800000  0.00000000  0.25000000  1.0
  Al0+  Al94  1  0.00000000  0.14800000  0.25000000  1.0
  Al0+  Al95  1  0.14800000  0.14800000  0.75000000  1.0
  Al0+  Al96  1  0.85200000  0.00000000  0.75000000  1.0
  Al0+  Al97  1  0.00000000  0.85200000  0.75000000  1.0
  Mo0+  Mo98  1  0.27000000  0.27000000  0.25000000  1.0
  Mo0+  Mo99  1  0.73000000  0.00000000  0.25000000  1.0
  Mo0+  Mo100  1  0.00000000  0.73000000  0.25000000  1.0
  Mo0+  Mo101  1  0.73000000  0.73000000  0.75000000  1.0
  Mo0+  Mo102  1  0.27000000  0.00000000  0.75000000  1.0
  Mo0+  Mo103  1  0.00000000  0.27000000  0.75000000  1.0
  Mo0+  Mo104  1  0.00000000  0.00000000  0.50000000  1.0
  Mo0+  Mo105  1  0.00000000  0.00000000  0.00000000  1.0
