# generated using pymatgen
data_LuS
_symmetry_space_group_name_H-M   'P 1'
_cell_length_a   5.32000000
_cell_length_b   5.32000000
_cell_length_c   5.32000000
_cell_angle_alpha   90.00000000
_cell_angle_beta   90.00000000
_cell_angle_gamma   90.00000000
_symmetry_Int_Tables_number   1
_chemical_formula_structural   LuS
_chemical_formula_sum   'Lu4 S4'
_cell_volume   150.56876800
_cell_formula_units_Z   4
loop_
 _symmetry_equiv_pos_site_id
 _symmetry_equiv_pos_as_xyz
  1  'x, y, z'
loop_
 _atom_type_symbol
 _atom_type_oxidation_number
  Lu0+  0.0
  S0+  0.0
loop_
 _atom_site_type_symbol
 _atom_site_label
 _atom_site_symmetry_multiplicity
 _atom_site_fract_x
 _atom_site_fract_y
 _atom_site_fract_z
 _atom_site_occupancy
  Lu0+  Lu0  1  0.00000000  0.00000000  0.00000000  1.0
  Lu0+  Lu1  1  0.00000000  0.50000000  0.50000000  1.0
  Lu0+  Lu2  1  0.50000000  0.00000000  0.50000000  1.0
  Lu0+  Lu3  1  0.50000000  0.50000000  0.00000000  1.0
  S0+  S4  1  0.50000000  0.50000000  0.50000000  1.0
  S0+  S5  1  0.50000000  0.00000000  0.00000000  1.0
  S0+  S6  1  0.00000000  0.50000000  0.00000000  1.0
  S0+  S7  1  0.00000000  0.00000000  0.50000000  1.0
