# generated using pymatgen
data_Sr3(B3Rh4)2
_symmetry_space_group_name_H-M   'P 1'
_cell_length_a   5.57200000
_cell_length_b   9.92100000
_cell_length_c   17.11800000
_cell_angle_alpha   90.00000000
_cell_angle_beta   90.00000000
_cell_angle_gamma   90.00000000
_symmetry_Int_Tables_number   1
_chemical_formula_structural   Sr3(B3Rh4)2
_chemical_formula_sum   'Sr12 B24 Rh32'
_cell_volume   946.27982182
_cell_formula_units_Z   4
loop_
 _symmetry_equiv_pos_site_id
 _symmetry_equiv_pos_as_xyz
  1  'x, y, z'
loop_
 _atom_type_symbol
 _atom_type_oxidation_number
  Sr2+  2.0
  B3-  -3.0
  Rh1.5+  1.5
loop_
 _atom_site_type_symbol
 _atom_site_label
 _atom_site_symmetry_multiplicity
 _atom_site_fract_x
 _atom_site_fract_y
 _atom_site_fract_z
 _atom_site_occupancy
  Sr2+  Sr0  1  0.00000000  0.00000000  0.50000000  1.0
  Sr2+  Sr1  1  0.00000000  0.50000000  0.00000000  1.0
  Sr2+  Sr2  1  0.50000000  0.00000000  0.00000000  1.0
  Sr2+  Sr3  1  0.50000000  0.50000000  0.50000000  1.0
  Sr2+  Sr4  1  0.00000000  0.00000000  0.68300000  1.0
  Sr2+  Sr5  1  0.00000000  0.00000000  0.31700000  1.0
  Sr2+  Sr6  1  0.00000000  0.50000000  0.18300000  1.0
  Sr2+  Sr7  1  0.00000000  0.50000000  0.81700000  1.0
  Sr2+  Sr8  1  0.50000000  0.00000000  0.18300000  1.0
  Sr2+  Sr9  1  0.50000000  0.00000000  0.81700000  1.0
  Sr2+  Sr10  1  0.50000000  0.50000000  0.68300000  1.0
  Sr2+  Sr11  1  0.50000000  0.50000000  0.31700000  1.0
  B3-  B12  1  0.00000000  0.16500000  0.00000000  1.0
  B3-  B13  1  0.00000000  0.83500000  0.00000000  1.0
  B3-  B14  1  0.00000000  0.66500000  0.50000000  1.0
  B3-  B15  1  0.00000000  0.33500000  0.50000000  1.0
  B3-  B16  1  0.50000000  0.16500000  0.50000000  1.0
  B3-  B17  1  0.50000000  0.83500000  0.50000000  1.0
  B3-  B18  1  0.50000000  0.66500000  0.00000000  1.0
  B3-  B19  1  0.50000000  0.33500000  0.00000000  1.0
  B3-  B20  1  0.00000000  0.16500000  0.82990000  1.0
  B3-  B21  1  0.00000000  0.83500000  0.17010000  1.0
  B3-  B22  1  0.00000000  0.16500000  0.17010000  1.0
  B3-  B23  1  0.00000000  0.83500000  0.82990000  1.0
  B3-  B24  1  0.00000000  0.66500000  0.32990000  1.0
  B3-  B25  1  0.00000000  0.33500000  0.67010000  1.0
  B3-  B26  1  0.00000000  0.66500000  0.67010000  1.0
  B3-  B27  1  0.00000000  0.33500000  0.32990000  1.0
  B3-  B28  1  0.50000000  0.16500000  0.32990000  1.0
  B3-  B29  1  0.50000000  0.83500000  0.67010000  1.0
  B3-  B30  1  0.50000000  0.16500000  0.67010000  1.0
  B3-  B31  1  0.50000000  0.83500000  0.32990000  1.0
  B3-  B32  1  0.50000000  0.66500000  0.82990000  1.0
  B3-  B33  1  0.50000000  0.33500000  0.17010000  1.0
  B3-  B34  1  0.50000000  0.66500000  0.17010000  1.0
  B3-  B35  1  0.50000000  0.33500000  0.82990000  1.0
  Rh1.5+  Rh36  1  0.00000000  0.00000000  0.91350000  1.0
  Rh1.5+  Rh37  1  0.00000000  0.00000000  0.08650000  1.0
  Rh1.5+  Rh38  1  0.00000000  0.50000000  0.41350000  1.0
  Rh1.5+  Rh39  1  0.00000000  0.50000000  0.58650000  1.0
  Rh1.5+  Rh40  1  0.50000000  0.00000000  0.41350000  1.0
  Rh1.5+  Rh41  1  0.50000000  0.00000000  0.58650000  1.0
  Rh1.5+  Rh42  1  0.50000000  0.50000000  0.91350000  1.0
  Rh1.5+  Rh43  1  0.50000000  0.50000000  0.08650000  1.0
  Rh1.5+  Rh44  1  0.25000000  0.25000000  0.91560000  1.0
  Rh1.5+  Rh45  1  0.25000000  0.75000000  0.08440000  1.0
  Rh1.5+  Rh46  1  0.75000000  0.25000000  0.08440000  1.0
  Rh1.5+  Rh47  1  0.75000000  0.75000000  0.91560000  1.0
  Rh1.5+  Rh48  1  0.75000000  0.75000000  0.08440000  1.0
  Rh1.5+  Rh49  1  0.75000000  0.25000000  0.91560000  1.0
  Rh1.5+  Rh50  1  0.25000000  0.75000000  0.91560000  1.0
  Rh1.5+  Rh51  1  0.25000000  0.25000000  0.08440000  1.0
  Rh1.5+  Rh52  1  0.25000000  0.75000000  0.41560000  1.0
  Rh1.5+  Rh53  1  0.25000000  0.25000000  0.58440000  1.0
  Rh1.5+  Rh54  1  0.75000000  0.75000000  0.58440000  1.0
  Rh1.5+  Rh55  1  0.75000000  0.25000000  0.41560000  1.0
  Rh1.5+  Rh56  1  0.75000000  0.25000000  0.58440000  1.0
  Rh1.5+  Rh57  1  0.75000000  0.75000000  0.41560000  1.0
  Rh1.5+  Rh58  1  0.25000000  0.25000000  0.41560000  1.0
  Rh1.5+  Rh59  1  0.25000000  0.75000000  0.58440000  1.0
  Rh1.5+  Rh60  1  0.25000000  0.25000000  0.75000000  1.0
  Rh1.5+  Rh61  1  0.25000000  0.75000000  0.25000000  1.0
  Rh1.5+  Rh62  1  0.75000000  0.25000000  0.25000000  1.0
  Rh1.5+  Rh63  1  0.75000000  0.75000000  0.75000000  1.0
  Rh1.5+  Rh64  1  0.75000000  0.75000000  0.25000000  1.0
  Rh1.5+  Rh65  1  0.75000000  0.25000000  0.75000000  1.0
  Rh1.5+  Rh66  1  0.25000000  0.75000000  0.75000000  1.0
  Rh1.5+  Rh67  1  0.25000000  0.25000000  0.25000000  1.0
