# generated using pymatgen
data_YGa2
_symmetry_space_group_name_H-M   'P 1'
_cell_length_a   4.21560000
_cell_length_b   4.21560000
_cell_length_c   3.41900000
_cell_angle_alpha   90.00000000
_cell_angle_beta   90.00000000
_cell_angle_gamma   120.00000000
_symmetry_Int_Tables_number   1
_chemical_formula_structural   YGa2
_chemical_formula_sum   'Y1 Ga2'
_cell_volume   52.61971896
_cell_formula_units_Z   1
loop_
 _symmetry_equiv_pos_site_id
 _symmetry_equiv_pos_as_xyz
  1  'x, y, z'
loop_
 _atom_type_symbol
 _atom_type_oxidation_number
  Y0+  0.0
  Ga0+  0.0
loop_
 _atom_site_type_symbol
 _atom_site_label
 _atom_site_symmetry_multiplicity
 _atom_site_fract_x
 _atom_site_fract_y
 _atom_site_fract_z
 _atom_site_occupancy
  Y0+  Y0  1  0.00000000  0.00000000  0.00000000  1.0
  Ga0+  Ga1  1  0.66666667  0.33333333  0.50000000  1.0
  Ga0+  Ga2  1  0.33333333  0.66666667  0.50000000  1.0
