# generated using pymatgen
data_CsBi2
_symmetry_space_group_name_H-M   'P 1'
_cell_length_a   9.77400000
_cell_length_b   9.77400000
_cell_length_c   9.77400000
_cell_angle_alpha   90.00000000
_cell_angle_beta   90.00000000
_cell_angle_gamma   90.00000000
_symmetry_Int_Tables_number   1
_chemical_formula_structural   CsBi2
_chemical_formula_sum   'Cs8 Bi16'
_cell_volume   933.72073682
_cell_formula_units_Z   8
loop_
 _symmetry_equiv_pos_site_id
 _symmetry_equiv_pos_as_xyz
  1  'x, y, z'
loop_
 _atom_type_symbol
 _atom_type_oxidation_number
  Cs0+  0.0
  Bi0+  0.0
loop_
 _atom_site_type_symbol
 _atom_site_label
 _atom_site_symmetry_multiplicity
 _atom_site_fract_x
 _atom_site_fract_y
 _atom_site_fract_z
 _atom_site_occupancy
  Cs0+  Cs0  1  0.37500000  0.37500000  0.37500000  1.0
  Cs0+  Cs1  1  0.62500000  0.62500000  0.62500000  1.0
  Cs0+  Cs2  1  0.37500000  0.87500000  0.87500000  1.0
  Cs0+  Cs3  1  0.62500000  0.12500000  0.12500000  1.0
  Cs0+  Cs4  1  0.87500000  0.37500000  0.87500000  1.0
  Cs0+  Cs5  1  0.12500000  0.62500000  0.12500000  1.0
  Cs0+  Cs6  1  0.87500000  0.87500000  0.37500000  1.0
  Cs0+  Cs7  1  0.12500000  0.12500000  0.62500000  1.0
  Bi0+  Bi8  1  0.00000000  0.75000000  0.75000000  1.0
  Bi0+  Bi9  1  0.75000000  0.00000000  0.75000000  1.0
  Bi0+  Bi10  1  0.75000000  0.75000000  0.00000000  1.0
  Bi0+  Bi11  1  0.00000000  0.00000000  0.00000000  1.0
  Bi0+  Bi12  1  0.00000000  0.25000000  0.25000000  1.0
  Bi0+  Bi13  1  0.25000000  0.00000000  0.25000000  1.0
  Bi0+  Bi14  1  0.25000000  0.25000000  0.00000000  1.0
  Bi0+  Bi15  1  0.75000000  0.50000000  0.25000000  1.0
  Bi0+  Bi16  1  0.75000000  0.25000000  0.50000000  1.0
  Bi0+  Bi17  1  0.00000000  0.50000000  0.50000000  1.0
  Bi0+  Bi18  1  0.25000000  0.50000000  0.75000000  1.0
  Bi0+  Bi19  1  0.25000000  0.75000000  0.50000000  1.0
  Bi0+  Bi20  1  0.50000000  0.75000000  0.25000000  1.0
  Bi0+  Bi21  1  0.50000000  0.00000000  0.50000000  1.0
  Bi0+  Bi22  1  0.50000000  0.25000000  0.75000000  1.0
  Bi0+  Bi23  1  0.50000000  0.50000000  0.00000000  1.0
