# generated using pymatgen
data_Os
_symmetry_space_group_name_H-M   'P 1'
_cell_length_a   2.70000000
_cell_length_b   2.70000000
_cell_length_c   3.81700000
_cell_angle_alpha   90.00000000
_cell_angle_beta   90.00000000
_cell_angle_gamma   120.00000000
_symmetry_Int_Tables_number   1
_chemical_formula_structural   Os
_chemical_formula_sum   Os2
_cell_volume   24.09796226
_cell_formula_units_Z   2
loop_
 _symmetry_equiv_pos_site_id
 _symmetry_equiv_pos_as_xyz
  1  'x, y, z'
loop_
 _atom_type_symbol
 _atom_type_oxidation_number
  Os0+  0.0
loop_
 _atom_site_type_symbol
 _atom_site_label
 _atom_site_symmetry_multiplicity
 _atom_site_fract_x
 _atom_site_fract_y
 _atom_site_fract_z
 _atom_site_occupancy
  Os0+  Os0  1  0.33333333  0.66666667  0.25000000  1.0
  Os0+  Os1  1  0.66666667  0.33333333  0.75000000  1.0
