# generated using pymatgen
data_YB2Pd2C
_symmetry_space_group_name_H-M   'P 1'
_cell_length_a   3.80700000
_cell_length_b   3.80700000
_cell_length_c   10.57400000
_cell_angle_alpha   90.00000000
_cell_angle_beta   90.00000000
_cell_angle_gamma   90.00000000
_symmetry_Int_Tables_number   1
_chemical_formula_structural   YB2Pd2C
_chemical_formula_sum   'Y2 B4 Pd4 C2'
_cell_volume   153.25161493
_cell_formula_units_Z   2
loop_
 _symmetry_equiv_pos_site_id
 _symmetry_equiv_pos_as_xyz
  1  'x, y, z'
loop_
 _atom_type_symbol
 _atom_type_oxidation_number
  Y0+  0.0
  B0+  0.0
  Pd0+  0.0
  C0+  0.0
loop_
 _atom_site_type_symbol
 _atom_site_label
 _atom_site_symmetry_multiplicity
 _atom_site_fract_x
 _atom_site_fract_y
 _atom_site_fract_z
 _atom_site_occupancy
  Y0+  Y0  1  0.00000000  0.00000000  0.00000000  1.0
  Y0+  Y1  1  0.50000000  0.50000000  0.50000000  1.0
  B0+  B2  1  0.00000000  0.00000000  0.63700000  1.0
  B0+  B3  1  0.00000000  0.00000000  0.36300000  1.0
  B0+  B4  1  0.50000000  0.50000000  0.13700000  1.0
  B0+  B5  1  0.50000000  0.50000000  0.86300000  1.0
  Pd0+  Pd6  1  0.50000000  0.00000000  0.75000000  1.0
  Pd0+  Pd7  1  0.00000000  0.50000000  0.75000000  1.0
  Pd0+  Pd8  1  0.50000000  0.00000000  0.25000000  1.0
  Pd0+  Pd9  1  0.00000000  0.50000000  0.25000000  1.0
  C0+  C10  1  0.00000000  0.00000000  0.50000000  1.0
  C0+  C11  1  0.50000000  0.50000000  0.00000000  1.0
