# generated using pymatgen
data_NbB2
_symmetry_space_group_name_H-M   'P 1'
_cell_length_a   3.11900000
_cell_length_b   3.11900000
_cell_length_c   3.33900000
_cell_angle_alpha   90.00000000
_cell_angle_beta   90.00000000
_cell_angle_gamma   120.00000000
_symmetry_Int_Tables_number   1
_chemical_formula_structural   NbB2
_chemical_formula_sum   'Nb1 B2'
_cell_volume   28.13052259
_cell_formula_units_Z   1
loop_
 _symmetry_equiv_pos_site_id
 _symmetry_equiv_pos_as_xyz
  1  'x, y, z'
loop_
 _atom_type_symbol
 _atom_type_oxidation_number
  Nb0+  0.0
  B0+  0.0
loop_
 _atom_site_type_symbol
 _atom_site_label
 _atom_site_symmetry_multiplicity
 _atom_site_fract_x
 _atom_site_fract_y
 _atom_site_fract_z
 _atom_site_occupancy
  Nb0+  Nb0  1  0.00000000  0.00000000  0.00000000  1.0
  B0+  B1  1  0.66666667  0.33333333  0.50000000  1.0
  B0+  B2  1  0.33333333  0.66666667  0.50000000  1.0
