# generated using pymatgen
data_MgNi3C
_symmetry_space_group_name_H-M   'P 1'
_cell_length_a   3.59200000
_cell_length_b   3.59200000
_cell_length_c   3.59200000
_cell_angle_alpha   90.00000000
_cell_angle_beta   90.00000000
_cell_angle_gamma   90.00000000
_symmetry_Int_Tables_number   1
_chemical_formula_structural   MgNi3C
_chemical_formula_sum   'Mg1 Ni3 C1'
_cell_volume   46.34565069
_cell_formula_units_Z   1
loop_
 _symmetry_equiv_pos_site_id
 _symmetry_equiv_pos_as_xyz
  1  'x, y, z'
loop_
 _atom_type_symbol
 _atom_type_oxidation_number
  Mg0+  0.0
  Ni0+  0.0
  C0+  0.0
loop_
 _atom_site_type_symbol
 _atom_site_label
 _atom_site_symmetry_multiplicity
 _atom_site_fract_x
 _atom_site_fract_y
 _atom_site_fract_z
 _atom_site_occupancy
  Mg0+  Mg0  1  0.00000000  0.00000000  0.00000000  1.0
  Ni0+  Ni1  1  0.50000000  0.50000000  0.00000000  1.0
  Ni0+  Ni2  1  0.50000000  0.00000000  0.50000000  1.0
  Ni0+  Ni3  1  0.00000000  0.50000000  0.50000000  1.0
  C0+  C4  1  0.50000000  0.50000000  0.50000000  1.0
