# generated using pymatgen
data_CoSi2
_symmetry_space_group_name_H-M   'P 1'
_cell_length_a   5.35500000
_cell_length_b   5.35500000
_cell_length_c   5.35500000
_cell_angle_alpha   90.00000000
_cell_angle_beta   90.00000000
_cell_angle_gamma   90.00000000
_symmetry_Int_Tables_number   1
_chemical_formula_structural   CoSi2
_chemical_formula_sum   'Co4 Si8'
_cell_volume   153.56011388
_cell_formula_units_Z   4
loop_
 _symmetry_equiv_pos_site_id
 _symmetry_equiv_pos_as_xyz
  1  'x, y, z'
loop_
 _atom_type_symbol
 _atom_type_oxidation_number
  Co0+  0.0
  Si0+  0.0
loop_
 _atom_site_type_symbol
 _atom_site_label
 _atom_site_symmetry_multiplicity
 _atom_site_fract_x
 _atom_site_fract_y
 _atom_site_fract_z
 _atom_site_occupancy
  Co0+  Co0  1  0.00000000  0.00000000  0.00000000  1.0
  Co0+  Co1  1  0.00000000  0.50000000  0.50000000  1.0
  Co0+  Co2  1  0.50000000  0.00000000  0.50000000  1.0
  Co0+  Co3  1  0.50000000  0.50000000  0.00000000  1.0
  Si0+  Si4  1  0.25000000  0.25000000  0.75000000  1.0
  Si0+  Si5  1  0.25000000  0.75000000  0.25000000  1.0
  Si0+  Si6  1  0.75000000  0.25000000  0.25000000  1.0
  Si0+  Si7  1  0.75000000  0.75000000  0.75000000  1.0
  Si0+  Si8  1  0.75000000  0.75000000  0.25000000  1.0
  Si0+  Si9  1  0.75000000  0.25000000  0.75000000  1.0
  Si0+  Si10  1  0.25000000  0.75000000  0.75000000  1.0
  Si0+  Si11  1  0.25000000  0.25000000  0.25000000  1.0
