# generated using pymatgen
data_Ge7Ir3
_symmetry_space_group_name_H-M   'P 1'
_cell_length_a   8.73500000
_cell_length_b   8.73500000
_cell_length_c   8.73500000
_cell_angle_alpha   90.00000000
_cell_angle_beta   90.00000000
_cell_angle_gamma   90.00000000
_symmetry_Int_Tables_number   1
_chemical_formula_structural   Ge7Ir3
_chemical_formula_sum   'Ge28 Ir12'
_cell_volume   666.48246537
_cell_formula_units_Z   4
loop_
 _symmetry_equiv_pos_site_id
 _symmetry_equiv_pos_as_xyz
  1  'x, y, z'
loop_
 _atom_type_symbol
 _atom_type_oxidation_number
  Ge0+  0.0
  Ir0+  0.0
loop_
 _atom_site_type_symbol
 _atom_site_label
 _atom_site_symmetry_multiplicity
 _atom_site_fract_x
 _atom_site_fract_y
 _atom_site_fract_z
 _atom_site_occupancy
  Ge0+  Ge0  1  0.50000000  0.00000000  0.75000000  1.0
  Ge0+  Ge1  1  0.00000000  0.25000000  0.50000000  1.0
  Ge0+  Ge2  1  0.25000000  0.50000000  0.00000000  1.0
  Ge0+  Ge3  1  0.50000000  0.25000000  0.00000000  1.0
  Ge0+  Ge4  1  0.00000000  0.50000000  0.75000000  1.0
  Ge0+  Ge5  1  0.25000000  0.00000000  0.50000000  1.0
  Ge0+  Ge6  1  0.50000000  0.00000000  0.25000000  1.0
  Ge0+  Ge7  1  0.00000000  0.75000000  0.50000000  1.0
  Ge0+  Ge8  1  0.50000000  0.75000000  0.00000000  1.0
  Ge0+  Ge9  1  0.00000000  0.50000000  0.25000000  1.0
  Ge0+  Ge10  1  0.75000000  0.50000000  0.00000000  1.0
  Ge0+  Ge11  1  0.75000000  0.00000000  0.50000000  1.0
  Ge0+  Ge12  1  0.15600000  0.15600000  0.84400000  1.0
  Ge0+  Ge13  1  0.15600000  0.84400000  0.15600000  1.0
  Ge0+  Ge14  1  0.84400000  0.15600000  0.15600000  1.0
  Ge0+  Ge15  1  0.84400000  0.84400000  0.84400000  1.0
  Ge0+  Ge16  1  0.84400000  0.84400000  0.15600000  1.0
  Ge0+  Ge17  1  0.84400000  0.15600000  0.84400000  1.0
  Ge0+  Ge18  1  0.15600000  0.84400000  0.84400000  1.0
  Ge0+  Ge19  1  0.15600000  0.15600000  0.15600000  1.0
  Ge0+  Ge20  1  0.65600000  0.65600000  0.34400000  1.0
  Ge0+  Ge21  1  0.65600000  0.34400000  0.65600000  1.0
  Ge0+  Ge22  1  0.34400000  0.65600000  0.65600000  1.0
  Ge0+  Ge23  1  0.34400000  0.34400000  0.34400000  1.0
  Ge0+  Ge24  1  0.34400000  0.34400000  0.65600000  1.0
  Ge0+  Ge25  1  0.34400000  0.65600000  0.34400000  1.0
  Ge0+  Ge26  1  0.65600000  0.34400000  0.34400000  1.0
  Ge0+  Ge27  1  0.65600000  0.65600000  0.65600000  1.0
  Ir0+  Ir28  1  0.00000000  0.00000000  0.65800000  1.0
  Ir0+  Ir29  1  0.00000000  0.34200000  0.00000000  1.0
  Ir0+  Ir30  1  0.34200000  0.00000000  0.00000000  1.0
  Ir0+  Ir31  1  0.00000000  0.00000000  0.34200000  1.0
  Ir0+  Ir32  1  0.00000000  0.65800000  0.00000000  1.0
  Ir0+  Ir33  1  0.65800000  0.00000000  0.00000000  1.0
  Ir0+  Ir34  1  0.50000000  0.50000000  0.15800000  1.0
  Ir0+  Ir35  1  0.50000000  0.84200000  0.50000000  1.0
  Ir0+  Ir36  1  0.84200000  0.50000000  0.50000000  1.0
  Ir0+  Ir37  1  0.50000000  0.50000000  0.84200000  1.0
  Ir0+  Ir38  1  0.50000000  0.15800000  0.50000000  1.0
  Ir0+  Ir39  1  0.15800000  0.50000000  0.50000000  1.0
