# generated using pymatgen
data_TaSi
_symmetry_space_group_name_H-M   'P 1'
_cell_length_a   5.07600000
_cell_length_b   5.07600000
_cell_length_c   5.07600000
_cell_angle_alpha   90.00000000
_cell_angle_beta   90.00000000
_cell_angle_gamma   90.00000000
_symmetry_Int_Tables_number   1
_chemical_formula_structural   TaSi
_chemical_formula_sum   'Ta4 Si4'
_cell_volume   130.78707898
_cell_formula_units_Z   4
loop_
 _symmetry_equiv_pos_site_id
 _symmetry_equiv_pos_as_xyz
  1  'x, y, z'
loop_
 _atom_type_symbol
 _atom_type_oxidation_number
  Ta0+  0.0
  Si0+  0.0
loop_
 _atom_site_type_symbol
 _atom_site_label
 _atom_site_symmetry_multiplicity
 _atom_site_fract_x
 _atom_site_fract_y
 _atom_site_fract_z
 _atom_site_occupancy
  Ta0+  Ta0  1  0.36060000  0.86060000  0.63940000  1.0
  Ta0+  Ta1  1  0.86060000  0.63940000  0.36060000  1.0
  Ta0+  Ta2  1  0.63940000  0.36060000  0.86060000  1.0
  Ta0+  Ta3  1  0.13940000  0.13940000  0.13940000  1.0
  Si0+  Si4  1  0.65250000  0.15250000  0.34750000  1.0
  Si0+  Si5  1  0.15250000  0.34750000  0.65250000  1.0
  Si0+  Si6  1  0.34750000  0.65250000  0.15250000  1.0
  Si0+  Si7  1  0.84750000  0.84750000  0.84750000  1.0
