# generated using pymatgen
data_Ba(PRh)2
_symmetry_space_group_name_H-M   'P 1'
_cell_length_a   3.97400000
_cell_length_b   3.97400000
_cell_length_c   12.85800000
_cell_angle_alpha   90.00000000
_cell_angle_beta   90.00000000
_cell_angle_gamma   90.00000000
_symmetry_Int_Tables_number   1
_chemical_formula_structural   Ba(PRh)2
_chemical_formula_sum   'Ba2 P4 Rh4'
_cell_volume   203.06222801
_cell_formula_units_Z   2
loop_
 _symmetry_equiv_pos_site_id
 _symmetry_equiv_pos_as_xyz
  1  'x, y, z'
loop_
 _atom_type_symbol
 _atom_type_oxidation_number
  Ba0+  0.0
  P0+  0.0
  Rh0+  0.0
loop_
 _atom_site_type_symbol
 _atom_site_label
 _atom_site_symmetry_multiplicity
 _atom_site_fract_x
 _atom_site_fract_y
 _atom_site_fract_z
 _atom_site_occupancy
  Ba0+  Ba0  1  0.00000000  0.00000000  0.00000000  1.0
  Ba0+  Ba1  1  0.50000000  0.50000000  0.50000000  1.0
  P0+  P2  1  0.00000000  0.00000000  0.64960000  1.0
  P0+  P3  1  0.00000000  0.00000000  0.35040000  1.0
  P0+  P4  1  0.50000000  0.50000000  0.14960000  1.0
  P0+  P5  1  0.50000000  0.50000000  0.85040000  1.0
  Rh0+  Rh6  1  0.50000000  0.00000000  0.75000000  1.0
  Rh0+  Rh7  1  0.00000000  0.50000000  0.75000000  1.0
  Rh0+  Rh8  1  0.50000000  0.00000000  0.25000000  1.0
  Rh0+  Rh9  1  0.00000000  0.50000000  0.25000000  1.0
