# generated using pymatgen
data_InN
_symmetry_space_group_name_H-M   'P 1'
_cell_length_a   3.58700000
_cell_length_b   3.58700000
_cell_length_c   5.76200000
_cell_angle_alpha   90.00000000
_cell_angle_beta   90.00000000
_cell_angle_gamma   120.00000000
_symmetry_Int_Tables_number   1
_chemical_formula_structural   InN
_chemical_formula_sum   'In2 N2'
_cell_volume   64.20467309
_cell_formula_units_Z   2
loop_
 _symmetry_equiv_pos_site_id
 _symmetry_equiv_pos_as_xyz
  1  'x, y, z'
loop_
 _atom_type_symbol
 _atom_type_oxidation_number
  In0+  0.0
  N0+  0.0
loop_
 _atom_site_type_symbol
 _atom_site_label
 _atom_site_symmetry_multiplicity
 _atom_site_fract_x
 _atom_site_fract_y
 _atom_site_fract_z
 _atom_site_occupancy
  In0+  In0  1  0.66666667  0.33333333  0.50000000  1.0
  In0+  In1  1  0.33333333  0.66666667  0.00000000  1.0
  N0+  N2  1  0.66666667  0.33333333  0.88000000  1.0
  N0+  N3  1  0.33333333  0.66666667  0.38000000  1.0
