# generated using pymatgen
data_CuS
_symmetry_space_group_name_H-M   'P 1'
_cell_length_a   3.78813000
_cell_length_b   3.78813000
_cell_length_c   16.33307000
_cell_angle_alpha   90.00000000
_cell_angle_beta   90.00000000
_cell_angle_gamma   120.00000000
_symmetry_Int_Tables_number   1
_chemical_formula_structural   CuS
_chemical_formula_sum   'Cu6 S6'
_cell_volume   202.97764258
_cell_formula_units_Z   6
loop_
 _symmetry_equiv_pos_site_id
 _symmetry_equiv_pos_as_xyz
  1  'x, y, z'
loop_
 _atom_type_symbol
 _atom_type_oxidation_number
  Cu+  1.0
  Cu2+  2.0
  S2-  -2.0
  S-  -1.0
loop_
 _atom_site_type_symbol
 _atom_site_label
 _atom_site_symmetry_multiplicity
 _atom_site_fract_x
 _atom_site_fract_y
 _atom_site_fract_z
 _atom_site_occupancy
  Cu+  Cu0  1  0.33333333  0.66666667  0.39263000  1.0
  Cu+  Cu1  1  0.66666667  0.33333333  0.60737000  1.0
  Cu+  Cu2  1  0.66666667  0.33333333  0.89263000  1.0
  Cu+  Cu3  1  0.33333333  0.66666667  0.10737000  1.0
  Cu2+  Cu4  1  0.66666667  0.33333333  0.25000000  1.0
  Cu2+  Cu5  1  0.33333333  0.66666667  0.75000000  1.0
  S-  S6  1  0.00000000  0.00000000  0.43671000  1.0
  S-  S7  1  0.00000000  0.00000000  0.56329000  1.0
  S-  S8  1  0.00000000  0.00000000  0.93671000  1.0
  S-  S9  1  0.00000000  0.00000000  0.06329000  1.0
  S2-  S10  1  0.33333333  0.66666667  0.25000000  1.0
  S2-  S11  1  0.66666667  0.33333333  0.75000000  1.0
