# generated using pymatgen
data_AlN
_symmetry_space_group_name_H-M   'P 1'
_cell_length_a   3.10000000
_cell_length_b   3.10000000
_cell_length_c   10.04000000
_cell_angle_alpha   90.00000000
_cell_angle_beta   90.00000000
_cell_angle_gamma   120.00000000
_symmetry_Int_Tables_number   1
_chemical_formula_structural   AlN
_chemical_formula_sum   'Al4 N4'
_cell_volume   83.55794147
_cell_formula_units_Z   4
loop_
 _symmetry_equiv_pos_site_id
 _symmetry_equiv_pos_as_xyz
  1  'x, y, z'
loop_
 _atom_type_symbol
 _atom_type_oxidation_number
  Al0+  0.0
  N0+  0.0
loop_
 _atom_site_type_symbol
 _atom_site_label
 _atom_site_symmetry_multiplicity
 _atom_site_fract_x
 _atom_site_fract_y
 _atom_site_fract_z
 _atom_site_occupancy
  Al0+  Al0  1  0.00000000  0.00000000  0.68910000  1.0
  Al0+  Al1  1  0.00000000  0.00000000  0.18910000  1.0
  Al0+  Al2  1  0.66666667  0.33333333  0.93800000  1.0
  Al0+  Al3  1  0.33333333  0.66666667  0.43800000  1.0
  N0+  N4  1  0.00000000  0.00000000  0.50000000  1.0
  N0+  N5  1  0.00000000  0.00000000  0.00000000  1.0
  N0+  N6  1  0.66666667  0.33333333  0.74950000  1.0
  N0+  N7  1  0.33333333  0.66666667  0.24950000  1.0
