# generated using pymatgen
data_ScB12
_symmetry_space_group_name_H-M   'P 1'
_cell_length_a   7.40200000
_cell_length_b   7.40200000
_cell_length_c   7.40200000
_cell_angle_alpha   90.00000000
_cell_angle_beta   90.00000000
_cell_angle_gamma   90.00000000
_symmetry_Int_Tables_number   1
_chemical_formula_structural   ScB12
_chemical_formula_sum   'Sc4 B48'
_cell_volume   405.55264881
_cell_formula_units_Z   4
loop_
 _symmetry_equiv_pos_site_id
 _symmetry_equiv_pos_as_xyz
  1  'x, y, z'
loop_
 _atom_type_symbol
 _atom_type_oxidation_number
  Sc0+  0.0
  B0+  0.0
loop_
 _atom_site_type_symbol
 _atom_site_label
 _atom_site_symmetry_multiplicity
 _atom_site_fract_x
 _atom_site_fract_y
 _atom_site_fract_z
 _atom_site_occupancy
  Sc0+  Sc0  1  0.00000000  0.00000000  0.00000000  1.0
  Sc0+  Sc1  1  0.00000000  0.50000000  0.50000000  1.0
  Sc0+  Sc2  1  0.50000000  0.00000000  0.50000000  1.0
  Sc0+  Sc3  1  0.50000000  0.50000000  0.00000000  1.0
  B0+  B4  1  0.16850000  0.16850000  0.50000000  1.0
  B0+  B5  1  0.16850000  0.50000000  0.83150000  1.0
  B0+  B6  1  0.50000000  0.16850000  0.83150000  1.0
  B0+  B7  1  0.16850000  0.83150000  0.50000000  1.0
  B0+  B8  1  0.16850000  0.50000000  0.16850000  1.0
  B0+  B9  1  0.50000000  0.83150000  0.16850000  1.0
  B0+  B10  1  0.83150000  0.16850000  0.50000000  1.0
  B0+  B11  1  0.83150000  0.50000000  0.16850000  1.0
  B0+  B12  1  0.50000000  0.16850000  0.16850000  1.0
  B0+  B13  1  0.83150000  0.83150000  0.50000000  1.0
  B0+  B14  1  0.83150000  0.50000000  0.83150000  1.0
  B0+  B15  1  0.50000000  0.83150000  0.83150000  1.0
  B0+  B16  1  0.16850000  0.66850000  0.00000000  1.0
  B0+  B17  1  0.16850000  0.00000000  0.33150000  1.0
  B0+  B18  1  0.50000000  0.66850000  0.33150000  1.0
  B0+  B19  1  0.16850000  0.33150000  0.00000000  1.0
  B0+  B20  1  0.16850000  0.00000000  0.66850000  1.0
  B0+  B21  1  0.50000000  0.33150000  0.66850000  1.0
  B0+  B22  1  0.83150000  0.66850000  0.00000000  1.0
  B0+  B23  1  0.83150000  0.00000000  0.66850000  1.0
  B0+  B24  1  0.50000000  0.66850000  0.66850000  1.0
  B0+  B25  1  0.83150000  0.33150000  0.00000000  1.0
  B0+  B26  1  0.83150000  0.00000000  0.33150000  1.0
  B0+  B27  1  0.50000000  0.33150000  0.33150000  1.0
  B0+  B28  1  0.66850000  0.16850000  0.00000000  1.0
  B0+  B29  1  0.66850000  0.50000000  0.33150000  1.0
  B0+  B30  1  0.00000000  0.16850000  0.33150000  1.0
  B0+  B31  1  0.66850000  0.83150000  0.00000000  1.0
  B0+  B32  1  0.66850000  0.50000000  0.66850000  1.0
  B0+  B33  1  0.00000000  0.83150000  0.66850000  1.0
  B0+  B34  1  0.33150000  0.16850000  0.00000000  1.0
  B0+  B35  1  0.33150000  0.50000000  0.66850000  1.0
  B0+  B36  1  0.00000000  0.16850000  0.66850000  1.0
  B0+  B37  1  0.33150000  0.83150000  0.00000000  1.0
  B0+  B38  1  0.33150000  0.50000000  0.33150000  1.0
  B0+  B39  1  0.00000000  0.83150000  0.33150000  1.0
  B0+  B40  1  0.66850000  0.66850000  0.50000000  1.0
  B0+  B41  1  0.66850000  0.00000000  0.83150000  1.0
  B0+  B42  1  0.00000000  0.66850000  0.83150000  1.0
  B0+  B43  1  0.66850000  0.33150000  0.50000000  1.0
  B0+  B44  1  0.66850000  0.00000000  0.16850000  1.0
  B0+  B45  1  0.00000000  0.33150000  0.16850000  1.0
  B0+  B46  1  0.33150000  0.66850000  0.50000000  1.0
  B0+  B47  1  0.33150000  0.00000000  0.16850000  1.0
  B0+  B48  1  0.00000000  0.66850000  0.16850000  1.0
  B0+  B49  1  0.33150000  0.33150000  0.50000000  1.0
  B0+  B50  1  0.33150000  0.00000000  0.83150000  1.0
  B0+  B51  1  0.00000000  0.33150000  0.83150000  1.0
