# generated using pymatgen
data_Mo15Se19
_symmetry_space_group_name_H-M   'P 1'
_cell_length_a   9.45000000
_cell_length_b   9.45000000
_cell_length_c   19.60000000
_cell_angle_alpha   90.00000000
_cell_angle_beta   90.00000000
_cell_angle_gamma   120.00000000
_symmetry_Int_Tables_number   1
_chemical_formula_structural   Mo15Se19
_chemical_formula_sum   'Mo30 Se38'
_cell_volume   1515.82937898
_cell_formula_units_Z   2
loop_
 _symmetry_equiv_pos_site_id
 _symmetry_equiv_pos_as_xyz
  1  'x, y, z'
loop_
 _atom_type_symbol
 _atom_type_oxidation_number
  Mo2.533+  2.533
  Se2-  -2.0
loop_
 _atom_site_type_symbol
 _atom_site_label
 _atom_site_symmetry_multiplicity
 _atom_site_fract_x
 _atom_site_fract_y
 _atom_site_fract_z
 _atom_site_occupancy
  Mo2.533+  Mo0  1  0.16150000  0.51110000  0.75000000  1.0
  Mo2.533+  Mo1  1  0.34960000  0.83850000  0.75000000  1.0
  Mo2.533+  Mo2  1  0.48890000  0.65040000  0.75000000  1.0
  Mo2.533+  Mo3  1  0.83850000  0.48890000  0.25000000  1.0
  Mo2.533+  Mo4  1  0.65040000  0.16150000  0.25000000  1.0
  Mo2.533+  Mo5  1  0.51110000  0.34960000  0.25000000  1.0
  Mo2.533+  Mo6  1  0.97950000  0.82690000  0.43930000  1.0
  Mo2.533+  Mo7  1  0.84740000  0.02050000  0.43930000  1.0
  Mo2.533+  Mo8  1  0.17310000  0.15260000  0.43930000  1.0
  Mo2.533+  Mo9  1  0.02050000  0.17310000  0.93930000  1.0
  Mo2.533+  Mo10  1  0.15260000  0.97950000  0.93930000  1.0
  Mo2.533+  Mo11  1  0.82690000  0.84740000  0.93930000  1.0
  Mo2.533+  Mo12  1  0.02050000  0.17310000  0.56070000  1.0
  Mo2.533+  Mo13  1  0.15260000  0.97950000  0.56070000  1.0
  Mo2.533+  Mo14  1  0.82690000  0.84740000  0.56070000  1.0
  Mo2.533+  Mo15  1  0.97950000  0.82690000  0.06070000  1.0
  Mo2.533+  Mo16  1  0.84740000  0.02050000  0.06070000  1.0
  Mo2.533+  Mo17  1  0.17310000  0.15260000  0.06070000  1.0
  Mo2.533+  Mo18  1  0.50720000  0.81870000  0.86730000  1.0
  Mo2.533+  Mo19  1  0.31150000  0.49280000  0.86730000  1.0
  Mo2.533+  Mo20  1  0.18130000  0.68850000  0.86730000  1.0
  Mo2.533+  Mo21  1  0.49280000  0.18130000  0.36730000  1.0
  Mo2.533+  Mo22  1  0.68850000  0.50720000  0.36730000  1.0
  Mo2.533+  Mo23  1  0.81870000  0.31150000  0.36730000  1.0
  Mo2.533+  Mo24  1  0.49280000  0.18130000  0.13270000  1.0
  Mo2.533+  Mo25  1  0.68850000  0.50720000  0.13270000  1.0
  Mo2.533+  Mo26  1  0.81870000  0.31150000  0.13270000  1.0
  Mo2.533+  Mo27  1  0.50720000  0.81870000  0.63270000  1.0
  Mo2.533+  Mo28  1  0.31150000  0.49280000  0.63270000  1.0
  Mo2.533+  Mo29  1  0.18130000  0.68850000  0.63270000  1.0
  Se2-  Se30  1  0.00000000  0.00000000  0.33820000  1.0
  Se2-  Se31  1  0.00000000  0.00000000  0.83820000  1.0
  Se2-  Se32  1  0.00000000  0.00000000  0.66180000  1.0
  Se2-  Se33  1  0.00000000  0.00000000  0.16180000  1.0
  Se2-  Se34  1  0.33333333  0.66666667  0.96860000  1.0
  Se2-  Se35  1  0.66666667  0.33333333  0.46860000  1.0
  Se2-  Se36  1  0.66666667  0.33333333  0.03140000  1.0
  Se2-  Se37  1  0.33333333  0.66666667  0.53140000  1.0
  Se2-  Se38  1  0.03580000  0.69790000  0.75000000  1.0
  Se2-  Se39  1  0.66210000  0.96420000  0.75000000  1.0
  Se2-  Se40  1  0.30210000  0.33790000  0.75000000  1.0
  Se2-  Se41  1  0.96420000  0.30210000  0.25000000  1.0
  Se2-  Se42  1  0.33790000  0.03580000  0.25000000  1.0
  Se2-  Se43  1  0.69790000  0.66210000  0.25000000  1.0
  Se2-  Se44  1  0.29220000  0.96220000  0.45270000  1.0
  Se2-  Se45  1  0.67000000  0.70780000  0.45270000  1.0
  Se2-  Se46  1  0.03780000  0.33000000  0.45270000  1.0
  Se2-  Se47  1  0.70780000  0.03780000  0.95270000  1.0
  Se2-  Se48  1  0.33000000  0.29220000  0.95270000  1.0
  Se2-  Se49  1  0.96220000  0.67000000  0.95270000  1.0
  Se2-  Se50  1  0.70780000  0.03780000  0.54730000  1.0
  Se2-  Se51  1  0.33000000  0.29220000  0.54730000  1.0
  Se2-  Se52  1  0.96220000  0.67000000  0.54730000  1.0
  Se2-  Se53  1  0.29220000  0.96220000  0.04730000  1.0
  Se2-  Se54  1  0.67000000  0.70780000  0.04730000  1.0
  Se2-  Se55  1  0.03780000  0.33000000  0.04730000  1.0
  Se2-  Se56  1  0.37570000  0.00130000  0.85590000  1.0
  Se2-  Se57  1  0.62560000  0.62430000  0.85590000  1.0
  Se2-  Se58  1  0.99870000  0.37440000  0.85590000  1.0
  Se2-  Se59  1  0.62430000  0.99870000  0.35590000  1.0
  Se2-  Se60  1  0.37440000  0.37570000  0.35590000  1.0
  Se2-  Se61  1  0.00130000  0.62560000  0.35590000  1.0
  Se2-  Se62  1  0.62430000  0.99870000  0.14410000  1.0
  Se2-  Se63  1  0.37440000  0.37570000  0.14410000  1.0
  Se2-  Se64  1  0.00130000  0.62560000  0.14410000  1.0
  Se2-  Se65  1  0.37570000  0.00130000  0.64410000  1.0
  Se2-  Se66  1  0.62560000  0.62430000  0.64410000  1.0
  Se2-  Se67  1  0.99870000  0.37440000  0.64410000  1.0
