# generated using pymatgen
data_KC8
_symmetry_space_group_name_H-M   'P 1'
_cell_length_a   4.92000000
_cell_length_b   8.51000000
_cell_length_c   21.40000000
_cell_angle_alpha   90.00000000
_cell_angle_beta   90.00000000
_cell_angle_gamma   90.00000000
_symmetry_Int_Tables_number   1
_chemical_formula_structural   KC8
_chemical_formula_sum   'K8 C64'
_cell_volume   896.00088000
_cell_formula_units_Z   8
loop_
 _symmetry_equiv_pos_site_id
 _symmetry_equiv_pos_as_xyz
  1  'x, y, z'
loop_
 _atom_type_symbol
 _atom_type_oxidation_number
  K+  1.0
  C0.125-  -0.125
loop_
 _atom_site_type_symbol
 _atom_site_label
 _atom_site_symmetry_multiplicity
 _atom_site_fract_x
 _atom_site_fract_y
 _atom_site_fract_z
 _atom_site_occupancy
  K+  K0  1  0.25000000  0.25000000  0.25000000  1.0
  K+  K1  1  0.00000000  0.00000000  0.00000000  1.0
  K+  K2  1  0.25000000  0.75000000  0.75000000  1.0
  K+  K3  1  0.00000000  0.50000000  0.50000000  1.0
  K+  K4  1  0.75000000  0.25000000  0.75000000  1.0
  K+  K5  1  0.50000000  0.00000000  0.50000000  1.0
  K+  K6  1  0.75000000  0.75000000  0.25000000  1.0
  K+  K7  1  0.50000000  0.50000000  0.00000000  1.0
  C0.125-  C8  1  0.50000000  0.33330000  0.12500000  1.0
  C0.125-  C9  1  0.00000000  0.33330000  0.37500000  1.0
  C0.125-  C10  1  0.75000000  0.91670000  0.12500000  1.0
  C0.125-  C11  1  0.25000000  0.91670000  0.87500000  1.0
  C0.125-  C12  1  0.50000000  0.16670000  0.37500000  1.0
  C0.125-  C13  1  0.00000000  0.16670000  0.12500000  1.0
  C0.125-  C14  1  0.75000000  0.08330000  0.87500000  1.0
  C0.125-  C15  1  0.25000000  0.08330000  0.12500000  1.0
  C0.125-  C16  1  0.50000000  0.83330000  0.62500000  1.0
  C0.125-  C17  1  0.00000000  0.83330000  0.87500000  1.0
  C0.125-  C18  1  0.75000000  0.41670000  0.62500000  1.0
  C0.125-  C19  1  0.25000000  0.41670000  0.37500000  1.0
  C0.125-  C20  1  0.50000000  0.66670000  0.87500000  1.0
  C0.125-  C21  1  0.00000000  0.66670000  0.62500000  1.0
  C0.125-  C22  1  0.75000000  0.58330000  0.37500000  1.0
  C0.125-  C23  1  0.25000000  0.58330000  0.62500000  1.0
  C0.125-  C24  1  0.00000000  0.33330000  0.62500000  1.0
  C0.125-  C25  1  0.50000000  0.33330000  0.87500000  1.0
  C0.125-  C26  1  0.25000000  0.91670000  0.62500000  1.0
  C0.125-  C27  1  0.75000000  0.91670000  0.37500000  1.0
  C0.125-  C28  1  0.00000000  0.16670000  0.87500000  1.0
  C0.125-  C29  1  0.50000000  0.16670000  0.62500000  1.0
  C0.125-  C30  1  0.25000000  0.08330000  0.37500000  1.0
  C0.125-  C31  1  0.75000000  0.08330000  0.62500000  1.0
  C0.125-  C32  1  0.00000000  0.83330000  0.12500000  1.0
  C0.125-  C33  1  0.50000000  0.83330000  0.37500000  1.0
  C0.125-  C34  1  0.25000000  0.41670000  0.12500000  1.0
  C0.125-  C35  1  0.75000000  0.41670000  0.87500000  1.0
  C0.125-  C36  1  0.00000000  0.66670000  0.37500000  1.0
  C0.125-  C37  1  0.50000000  0.66670000  0.12500000  1.0
  C0.125-  C38  1  0.25000000  0.58330000  0.87500000  1.0
  C0.125-  C39  1  0.75000000  0.58330000  0.12500000  1.0
  C0.125-  C40  1  0.50000000  0.33330000  0.62500000  1.0
  C0.125-  C41  1  0.00000000  0.33330000  0.87500000  1.0
  C0.125-  C42  1  0.75000000  0.91670000  0.62500000  1.0
  C0.125-  C43  1  0.25000000  0.91670000  0.37500000  1.0
  C0.125-  C44  1  0.50000000  0.16670000  0.87500000  1.0
  C0.125-  C45  1  0.00000000  0.16670000  0.62500000  1.0
  C0.125-  C46  1  0.75000000  0.08330000  0.37500000  1.0
  C0.125-  C47  1  0.25000000  0.08330000  0.62500000  1.0
  C0.125-  C48  1  0.50000000  0.83330000  0.12500000  1.0
  C0.125-  C49  1  0.00000000  0.83330000  0.37500000  1.0
  C0.125-  C50  1  0.75000000  0.41670000  0.12500000  1.0
  C0.125-  C51  1  0.25000000  0.41670000  0.87500000  1.0
  C0.125-  C52  1  0.50000000  0.66670000  0.37500000  1.0
  C0.125-  C53  1  0.00000000  0.66670000  0.12500000  1.0
  C0.125-  C54  1  0.75000000  0.58330000  0.87500000  1.0
  C0.125-  C55  1  0.25000000  0.58330000  0.12500000  1.0
  C0.125-  C56  1  0.00000000  0.33330000  0.12500000  1.0
  C0.125-  C57  1  0.50000000  0.33330000  0.37500000  1.0
  C0.125-  C58  1  0.25000000  0.91670000  0.12500000  1.0
  C0.125-  C59  1  0.75000000  0.91670000  0.87500000  1.0
  C0.125-  C60  1  0.00000000  0.16670000  0.37500000  1.0
  C0.125-  C61  1  0.50000000  0.16670000  0.12500000  1.0
  C0.125-  C62  1  0.25000000  0.08330000  0.87500000  1.0
  C0.125-  C63  1  0.75000000  0.08330000  0.12500000  1.0
  C0.125-  C64  1  0.00000000  0.83330000  0.62500000  1.0
  C0.125-  C65  1  0.50000000  0.83330000  0.87500000  1.0
  C0.125-  C66  1  0.25000000  0.41670000  0.62500000  1.0
  C0.125-  C67  1  0.75000000  0.41670000  0.37500000  1.0
  C0.125-  C68  1  0.00000000  0.66670000  0.87500000  1.0
  C0.125-  C69  1  0.50000000  0.66670000  0.62500000  1.0
  C0.125-  C70  1  0.25000000  0.58330000  0.37500000  1.0
  C0.125-  C71  1  0.75000000  0.58330000  0.62500000  1.0
