# generated using pymatgen
data_BaC10
_symmetry_space_group_name_H-M   'P 1'
_cell_length_a   10.17100000
_cell_length_b   10.17100000
_cell_length_c   10.17100000
_cell_angle_alpha   90.00000000
_cell_angle_beta   90.00000000
_cell_angle_gamma   90.00000000
_symmetry_Int_Tables_number   1
_chemical_formula_structural   BaC10
_chemical_formula_sum   'Ba12 C120'
_cell_volume   1052.18223021
_cell_formula_units_Z   12
loop_
 _symmetry_equiv_pos_site_id
 _symmetry_equiv_pos_as_xyz
  1  'x, y, z'
loop_
 _atom_type_symbol
 _atom_type_oxidation_number
  Ba2+  2.0
  C0.2-  -0.2
loop_
 _atom_site_type_symbol
 _atom_site_label
 _atom_site_symmetry_multiplicity
 _atom_site_fract_x
 _atom_site_fract_y
 _atom_site_fract_z
 _atom_site_occupancy
  Ba2+  Ba0  1  0.72070000  0.00000000  0.50000000  1.0
  Ba2+  Ba1  1  0.27930000  0.00000000  0.50000000  1.0
  Ba2+  Ba2  1  0.50000000  0.72070000  0.00000000  1.0
  Ba2+  Ba3  1  0.50000000  0.27930000  0.00000000  1.0
  Ba2+  Ba4  1  0.00000000  0.50000000  0.72070000  1.0
  Ba2+  Ba5  1  0.00000000  0.50000000  0.27930000  1.0
  Ba2+  Ba6  1  0.22070000  0.50000000  0.00000000  1.0
  Ba2+  Ba7  1  0.77930000  0.50000000  0.00000000  1.0
  Ba2+  Ba8  1  0.00000000  0.22070000  0.50000000  1.0
  Ba2+  Ba9  1  0.00000000  0.77930000  0.50000000  1.0
  Ba2+  Ba10  1  0.50000000  0.00000000  0.22070000  1.0
  Ba2+  Ba11  1  0.50000000  0.00000000  0.77930000  1.0
  C0.2-  C12  1  0.69130000  0.06350000  0.00000000  1.0
  C0.2-  C13  1  0.30870000  0.06350000  0.00000000  1.0
  C0.2-  C14  1  0.30870000  0.93650000  0.00000000  1.0
  C0.2-  C15  1  0.69130000  0.93650000  0.00000000  1.0
  C0.2-  C16  1  0.00000000  0.69130000  0.06350000  1.0
  C0.2-  C17  1  0.00000000  0.30870000  0.06350000  1.0
  C0.2-  C18  1  0.00000000  0.30870000  0.93650000  1.0
  C0.2-  C19  1  0.00000000  0.69130000  0.93650000  1.0
  C0.2-  C20  1  0.06350000  0.00000000  0.69130000  1.0
  C0.2-  C21  1  0.06350000  0.00000000  0.30870000  1.0
  C0.2-  C22  1  0.93650000  0.00000000  0.30870000  1.0
  C0.2-  C23  1  0.93650000  0.00000000  0.69130000  1.0
  C0.2-  C24  1  0.19130000  0.56350000  0.50000000  1.0
  C0.2-  C25  1  0.80870000  0.56350000  0.50000000  1.0
  C0.2-  C26  1  0.80870000  0.43650000  0.50000000  1.0
  C0.2-  C27  1  0.19130000  0.43650000  0.50000000  1.0
  C0.2-  C28  1  0.50000000  0.19130000  0.56350000  1.0
  C0.2-  C29  1  0.50000000  0.80870000  0.56350000  1.0
  C0.2-  C30  1  0.50000000  0.80870000  0.43650000  1.0
  C0.2-  C31  1  0.50000000  0.19130000  0.43650000  1.0
  C0.2-  C32  1  0.56350000  0.50000000  0.19130000  1.0
  C0.2-  C33  1  0.56350000  0.50000000  0.80870000  1.0
  C0.2-  C34  1  0.43650000  0.50000000  0.80870000  1.0
  C0.2-  C35  1  0.43650000  0.50000000  0.19130000  1.0
  C0.2-  C36  1  0.73070000  0.12620000  0.10290000  1.0
  C0.2-  C37  1  0.26930000  0.12620000  0.89710000  1.0
  C0.2-  C38  1  0.26930000  0.87380000  0.10290000  1.0
  C0.2-  C39  1  0.73070000  0.87380000  0.89710000  1.0
  C0.2-  C40  1  0.10290000  0.73070000  0.12620000  1.0
  C0.2-  C41  1  0.89710000  0.26930000  0.12620000  1.0
  C0.2-  C42  1  0.10290000  0.26930000  0.87380000  1.0
  C0.2-  C43  1  0.89710000  0.73070000  0.87380000  1.0
  C0.2-  C44  1  0.12620000  0.10290000  0.73070000  1.0
  C0.2-  C45  1  0.12620000  0.89710000  0.26930000  1.0
  C0.2-  C46  1  0.87380000  0.10290000  0.26930000  1.0
  C0.2-  C47  1  0.87380000  0.89710000  0.73070000  1.0
  C0.2-  C48  1  0.26930000  0.87380000  0.89710000  1.0
  C0.2-  C49  1  0.73070000  0.87380000  0.10290000  1.0
  C0.2-  C50  1  0.73070000  0.12620000  0.89710000  1.0
  C0.2-  C51  1  0.26930000  0.12620000  0.10290000  1.0
  C0.2-  C52  1  0.89710000  0.26930000  0.87380000  1.0
  C0.2-  C53  1  0.10290000  0.73070000  0.87380000  1.0
  C0.2-  C54  1  0.89710000  0.73070000  0.12620000  1.0
  C0.2-  C55  1  0.10290000  0.26930000  0.12620000  1.0
  C0.2-  C56  1  0.87380000  0.89710000  0.26930000  1.0
  C0.2-  C57  1  0.87380000  0.10290000  0.73070000  1.0
  C0.2-  C58  1  0.12620000  0.89710000  0.73070000  1.0
  C0.2-  C59  1  0.12620000  0.10290000  0.26930000  1.0
  C0.2-  C60  1  0.23070000  0.62620000  0.60290000  1.0
  C0.2-  C61  1  0.76930000  0.62620000  0.39710000  1.0
  C0.2-  C62  1  0.76930000  0.37380000  0.60290000  1.0
  C0.2-  C63  1  0.23070000  0.37380000  0.39710000  1.0
  C0.2-  C64  1  0.60290000  0.23070000  0.62620000  1.0
  C0.2-  C65  1  0.39710000  0.76930000  0.62620000  1.0
  C0.2-  C66  1  0.60290000  0.76930000  0.37380000  1.0
  C0.2-  C67  1  0.39710000  0.23070000  0.37380000  1.0
  C0.2-  C68  1  0.62620000  0.60290000  0.23070000  1.0
  C0.2-  C69  1  0.62620000  0.39710000  0.76930000  1.0
  C0.2-  C70  1  0.37380000  0.60290000  0.76930000  1.0
  C0.2-  C71  1  0.37380000  0.39710000  0.23070000  1.0
  C0.2-  C72  1  0.76930000  0.37380000  0.39710000  1.0
  C0.2-  C73  1  0.23070000  0.37380000  0.60290000  1.0
  C0.2-  C74  1  0.23070000  0.62620000  0.39710000  1.0
  C0.2-  C75  1  0.76930000  0.62620000  0.60290000  1.0
  C0.2-  C76  1  0.39710000  0.76930000  0.37380000  1.0
  C0.2-  C77  1  0.60290000  0.23070000  0.37380000  1.0
  C0.2-  C78  1  0.39710000  0.23070000  0.62620000  1.0
  C0.2-  C79  1  0.60290000  0.76930000  0.62620000  1.0
  C0.2-  C80  1  0.37380000  0.39710000  0.76930000  1.0
  C0.2-  C81  1  0.37380000  0.60290000  0.23070000  1.0
  C0.2-  C82  1  0.62620000  0.39710000  0.23070000  1.0
  C0.2-  C83  1  0.62620000  0.60290000  0.76930000  1.0
  C0.2-  C84  1  0.76990000  0.06350000  0.20570000  1.0
  C0.2-  C85  1  0.23010000  0.06350000  0.79430000  1.0
  C0.2-  C86  1  0.23010000  0.93650000  0.20570000  1.0
  C0.2-  C87  1  0.76990000  0.93650000  0.79430000  1.0
  C0.2-  C88  1  0.20570000  0.76990000  0.06350000  1.0
  C0.2-  C89  1  0.79430000  0.23010000  0.06350000  1.0
  C0.2-  C90  1  0.20570000  0.23010000  0.93650000  1.0
  C0.2-  C91  1  0.79430000  0.76990000  0.93650000  1.0
  C0.2-  C92  1  0.06350000  0.20570000  0.76990000  1.0
  C0.2-  C93  1  0.06350000  0.79430000  0.23010000  1.0
  C0.2-  C94  1  0.93650000  0.20570000  0.23010000  1.0
  C0.2-  C95  1  0.93650000  0.79430000  0.76990000  1.0
  C0.2-  C96  1  0.23010000  0.93650000  0.79430000  1.0
  C0.2-  C97  1  0.76990000  0.93650000  0.20570000  1.0
  C0.2-  C98  1  0.76990000  0.06350000  0.79430000  1.0
  C0.2-  C99  1  0.23010000  0.06350000  0.20570000  1.0
  C0.2-  C100  1  0.79430000  0.23010000  0.93650000  1.0
  C0.2-  C101  1  0.20570000  0.76990000  0.93650000  1.0
  C0.2-  C102  1  0.79430000  0.76990000  0.06350000  1.0
  C0.2-  C103  1  0.20570000  0.23010000  0.06350000  1.0
  C0.2-  C104  1  0.93650000  0.79430000  0.23010000  1.0
  C0.2-  C105  1  0.93650000  0.20570000  0.76990000  1.0
  C0.2-  C106  1  0.06350000  0.79430000  0.76990000  1.0
  C0.2-  C107  1  0.06350000  0.20570000  0.23010000  1.0
  C0.2-  C108  1  0.26990000  0.56350000  0.70570000  1.0
  C0.2-  C109  1  0.73010000  0.56350000  0.29430000  1.0
  C0.2-  C110  1  0.73010000  0.43650000  0.70570000  1.0
  C0.2-  C111  1  0.26990000  0.43650000  0.29430000  1.0
  C0.2-  C112  1  0.70570000  0.26990000  0.56350000  1.0
  C0.2-  C113  1  0.29430000  0.73010000  0.56350000  1.0
  C0.2-  C114  1  0.70570000  0.73010000  0.43650000  1.0
  C0.2-  C115  1  0.29430000  0.26990000  0.43650000  1.0
  C0.2-  C116  1  0.56350000  0.70570000  0.26990000  1.0
  C0.2-  C117  1  0.56350000  0.29430000  0.73010000  1.0
  C0.2-  C118  1  0.43650000  0.70570000  0.73010000  1.0
  C0.2-  C119  1  0.43650000  0.29430000  0.26990000  1.0
  C0.2-  C120  1  0.73010000  0.43650000  0.29430000  1.0
  C0.2-  C121  1  0.26990000  0.43650000  0.70570000  1.0
  C0.2-  C122  1  0.26990000  0.56350000  0.29430000  1.0
  C0.2-  C123  1  0.73010000  0.56350000  0.70570000  1.0
  C0.2-  C124  1  0.29430000  0.73010000  0.43650000  1.0
  C0.2-  C125  1  0.70570000  0.26990000  0.43650000  1.0
  C0.2-  C126  1  0.29430000  0.26990000  0.56350000  1.0
  C0.2-  C127  1  0.70570000  0.73010000  0.56350000  1.0
  C0.2-  C128  1  0.43650000  0.29430000  0.73010000  1.0
  C0.2-  C129  1  0.43650000  0.70570000  0.26990000  1.0
  C0.2-  C130  1  0.56350000  0.29430000  0.26990000  1.0
  C0.2-  C131  1  0.56350000  0.70570000  0.73010000  1.0
