# generated using pymatgen
data_Hf2Co
_symmetry_space_group_name_H-M   'P 1'
_cell_length_a   12.03100000
_cell_length_b   12.03100000
_cell_length_c   12.03100000
_cell_angle_alpha   90.00000000
_cell_angle_beta   90.00000000
_cell_angle_gamma   90.00000000
_symmetry_Int_Tables_number   1
_chemical_formula_structural   Hf2Co
_chemical_formula_sum   'Hf64 Co32'
_cell_volume   1741.42662579
_cell_formula_units_Z   32
loop_
 _symmetry_equiv_pos_site_id
 _symmetry_equiv_pos_as_xyz
  1  'x, y, z'
loop_
 _atom_type_symbol
 _atom_type_oxidation_number
  Hf0+  0.0
  Co0+  0.0
loop_
 _atom_site_type_symbol
 _atom_site_label
 _atom_site_symmetry_multiplicity
 _atom_site_fract_x
 _atom_site_fract_y
 _atom_site_fract_z
 _atom_site_occupancy
  Hf0+  Hf0  1  0.00000000  0.75000000  0.75000000  1.0
  Hf0+  Hf1  1  0.75000000  0.00000000  0.75000000  1.0
  Hf0+  Hf2  1  0.75000000  0.75000000  0.00000000  1.0
  Hf0+  Hf3  1  0.00000000  0.00000000  0.00000000  1.0
  Hf0+  Hf4  1  0.00000000  0.25000000  0.25000000  1.0
  Hf0+  Hf5  1  0.25000000  0.00000000  0.25000000  1.0
  Hf0+  Hf6  1  0.25000000  0.25000000  0.00000000  1.0
  Hf0+  Hf7  1  0.75000000  0.50000000  0.25000000  1.0
  Hf0+  Hf8  1  0.75000000  0.25000000  0.50000000  1.0
  Hf0+  Hf9  1  0.00000000  0.50000000  0.50000000  1.0
  Hf0+  Hf10  1  0.25000000  0.50000000  0.75000000  1.0
  Hf0+  Hf11  1  0.25000000  0.75000000  0.50000000  1.0
  Hf0+  Hf12  1  0.50000000  0.75000000  0.25000000  1.0
  Hf0+  Hf13  1  0.50000000  0.00000000  0.50000000  1.0
  Hf0+  Hf14  1  0.50000000  0.25000000  0.75000000  1.0
  Hf0+  Hf15  1  0.50000000  0.50000000  0.00000000  1.0
  Hf0+  Hf16  1  0.87500000  0.87500000  0.18600000  1.0
  Hf0+  Hf17  1  0.87500000  0.87500000  0.56400000  1.0
  Hf0+  Hf18  1  0.87500000  0.18600000  0.87500000  1.0
  Hf0+  Hf19  1  0.87500000  0.56400000  0.87500000  1.0
  Hf0+  Hf20  1  0.18600000  0.87500000  0.87500000  1.0
  Hf0+  Hf21  1  0.56400000  0.87500000  0.87500000  1.0
  Hf0+  Hf22  1  0.12500000  0.12500000  0.81400000  1.0
  Hf0+  Hf23  1  0.12500000  0.12500000  0.43600000  1.0
  Hf0+  Hf24  1  0.12500000  0.81400000  0.12500000  1.0
  Hf0+  Hf25  1  0.12500000  0.43600000  0.12500000  1.0
  Hf0+  Hf26  1  0.81400000  0.12500000  0.12500000  1.0
  Hf0+  Hf27  1  0.43600000  0.12500000  0.12500000  1.0
  Hf0+  Hf28  1  0.87500000  0.37500000  0.68600000  1.0
  Hf0+  Hf29  1  0.87500000  0.37500000  0.06400000  1.0
  Hf0+  Hf30  1  0.87500000  0.68600000  0.37500000  1.0
  Hf0+  Hf31  1  0.87500000  0.06400000  0.37500000  1.0
  Hf0+  Hf32  1  0.18600000  0.37500000  0.37500000  1.0
  Hf0+  Hf33  1  0.56400000  0.37500000  0.37500000  1.0
  Hf0+  Hf34  1  0.12500000  0.62500000  0.31400000  1.0
  Hf0+  Hf35  1  0.12500000  0.62500000  0.93600000  1.0
  Hf0+  Hf36  1  0.12500000  0.31400000  0.62500000  1.0
  Hf0+  Hf37  1  0.12500000  0.93600000  0.62500000  1.0
  Hf0+  Hf38  1  0.81400000  0.62500000  0.62500000  1.0
  Hf0+  Hf39  1  0.43600000  0.62500000  0.62500000  1.0
  Hf0+  Hf40  1  0.37500000  0.87500000  0.68600000  1.0
  Hf0+  Hf41  1  0.37500000  0.87500000  0.06400000  1.0
  Hf0+  Hf42  1  0.37500000  0.18600000  0.37500000  1.0
  Hf0+  Hf43  1  0.37500000  0.56400000  0.37500000  1.0
  Hf0+  Hf44  1  0.68600000  0.87500000  0.37500000  1.0
  Hf0+  Hf45  1  0.06400000  0.87500000  0.37500000  1.0
  Hf0+  Hf46  1  0.62500000  0.12500000  0.31400000  1.0
  Hf0+  Hf47  1  0.62500000  0.12500000  0.93600000  1.0
  Hf0+  Hf48  1  0.62500000  0.81400000  0.62500000  1.0
  Hf0+  Hf49  1  0.62500000  0.43600000  0.62500000  1.0
  Hf0+  Hf50  1  0.31400000  0.12500000  0.62500000  1.0
  Hf0+  Hf51  1  0.93600000  0.12500000  0.62500000  1.0
  Hf0+  Hf52  1  0.37500000  0.37500000  0.18600000  1.0
  Hf0+  Hf53  1  0.37500000  0.37500000  0.56400000  1.0
  Hf0+  Hf54  1  0.37500000  0.68600000  0.87500000  1.0
  Hf0+  Hf55  1  0.37500000  0.06400000  0.87500000  1.0
  Hf0+  Hf56  1  0.68600000  0.37500000  0.87500000  1.0
  Hf0+  Hf57  1  0.06400000  0.37500000  0.87500000  1.0
  Hf0+  Hf58  1  0.62500000  0.62500000  0.81400000  1.0
  Hf0+  Hf59  1  0.62500000  0.62500000  0.43600000  1.0
  Hf0+  Hf60  1  0.62500000  0.31400000  0.12500000  1.0
  Hf0+  Hf61  1  0.62500000  0.93600000  0.12500000  1.0
  Hf0+  Hf62  1  0.31400000  0.62500000  0.12500000  1.0
  Hf0+  Hf63  1  0.93600000  0.62500000  0.12500000  1.0
  Co0+  Co64  1  0.78700000  0.96300000  0.96300000  1.0
  Co0+  Co65  1  0.96300000  0.78700000  0.96300000  1.0
  Co0+  Co66  1  0.96300000  0.96300000  0.78700000  1.0
  Co0+  Co67  1  0.78700000  0.78700000  0.78700000  1.0
  Co0+  Co68  1  0.21300000  0.03700000  0.03700000  1.0
  Co0+  Co69  1  0.03700000  0.21300000  0.03700000  1.0
  Co0+  Co70  1  0.03700000  0.03700000  0.21300000  1.0
  Co0+  Co71  1  0.21300000  0.21300000  0.21300000  1.0
  Co0+  Co72  1  0.78700000  0.46300000  0.46300000  1.0
  Co0+  Co73  1  0.96300000  0.28700000  0.46300000  1.0
  Co0+  Co74  1  0.96300000  0.46300000  0.28700000  1.0
  Co0+  Co75  1  0.78700000  0.28700000  0.28700000  1.0
  Co0+  Co76  1  0.21300000  0.53700000  0.53700000  1.0
  Co0+  Co77  1  0.03700000  0.71300000  0.53700000  1.0
  Co0+  Co78  1  0.03700000  0.53700000  0.71300000  1.0
  Co0+  Co79  1  0.21300000  0.71300000  0.71300000  1.0
  Co0+  Co80  1  0.28700000  0.96300000  0.46300000  1.0
  Co0+  Co81  1  0.46300000  0.78700000  0.46300000  1.0
  Co0+  Co82  1  0.46300000  0.96300000  0.28700000  1.0
  Co0+  Co83  1  0.28700000  0.78700000  0.28700000  1.0
  Co0+  Co84  1  0.71300000  0.03700000  0.53700000  1.0
  Co0+  Co85  1  0.53700000  0.21300000  0.53700000  1.0
  Co0+  Co86  1  0.53700000  0.03700000  0.71300000  1.0
  Co0+  Co87  1  0.71300000  0.21300000  0.71300000  1.0
  Co0+  Co88  1  0.28700000  0.46300000  0.96300000  1.0
  Co0+  Co89  1  0.46300000  0.28700000  0.96300000  1.0
  Co0+  Co90  1  0.46300000  0.46300000  0.78700000  1.0
  Co0+  Co91  1  0.28700000  0.28700000  0.78700000  1.0
  Co0+  Co92  1  0.71300000  0.53700000  0.03700000  1.0
  Co0+  Co93  1  0.53700000  0.71300000  0.03700000  1.0
  Co0+  Co94  1  0.53700000  0.53700000  0.21300000  1.0
  Co0+  Co95  1  0.71300000  0.71300000  0.21300000  1.0
