# generated using pymatgen
data_Ta4Te16Pd3
_symmetry_space_group_name_H-M   'P 1'
_cell_length_a   17.68700000
_cell_length_b   3.73500000
_cell_length_c   19.51000000
_cell_angle_alpha   90.00000000
_cell_angle_beta   110.42000000
_cell_angle_gamma   90.00000000
_symmetry_Int_Tables_number   1
_chemical_formula_structural   Ta4Te16Pd3
_chemical_formula_sum   'Ta8 Te32 Pd6'
_cell_volume   1207.85809573
_cell_formula_units_Z   2
loop_
 _symmetry_equiv_pos_site_id
 _symmetry_equiv_pos_as_xyz
  1  'x, y, z'
loop_
 _atom_type_symbol
 _atom_type_oxidation_number
  Ta0+  0.0
  Te0+  0.0
  Pd0+  0.0
loop_
 _atom_site_type_symbol
 _atom_site_label
 _atom_site_symmetry_multiplicity
 _atom_site_fract_x
 _atom_site_fract_y
 _atom_site_fract_z
 _atom_site_occupancy
  Ta0+  Ta0  1  0.23368000  0.00000000  0.08323000  1.0
  Ta0+  Ta1  1  0.76632000  0.00000000  0.91677000  1.0
  Ta0+  Ta2  1  0.73368000  0.50000000  0.58323000  1.0
  Ta0+  Ta3  1  0.26632000  0.50000000  0.41677000  1.0
  Ta0+  Ta4  1  0.62582000  0.00000000  0.20750000  1.0
  Ta0+  Ta5  1  0.37418000  0.00000000  0.79250000  1.0
  Ta0+  Ta6  1  0.12582000  0.50000000  0.70750000  1.0
  Ta0+  Ta7  1  0.87418000  0.50000000  0.29250000  1.0
  Te0+  Te8  1  0.13751000  0.50000000  0.12433000  1.0
  Te0+  Te9  1  0.86249000  0.50000000  0.87567000  1.0
  Te0+  Te10  1  0.63751000  0.00000000  0.62433000  1.0
  Te0+  Te11  1  0.36249000  0.00000000  0.37567000  1.0
  Te0+  Te12  1  0.08177000  0.00000000  0.95780000  1.0
  Te0+  Te13  1  0.91823000  0.00000000  0.04220000  1.0
  Te0+  Te14  1  0.58177000  0.50000000  0.45780000  1.0
  Te0+  Te15  1  0.41823000  0.50000000  0.54220000  1.0
  Te0+  Te16  1  0.24721000  0.50000000  0.97879000  1.0
  Te0+  Te17  1  0.75279000  0.50000000  0.02121000  1.0
  Te0+  Te18  1  0.74721000  0.00000000  0.47879000  1.0
  Te0+  Te19  1  0.25279000  0.00000000  0.52121000  1.0
  Te0+  Te20  1  0.39423000  0.00000000  0.07531000  1.0
  Te0+  Te21  1  0.60577000  0.00000000  0.92469000  1.0
  Te0+  Te22  1  0.89423000  0.50000000  0.57531000  1.0
  Te0+  Te23  1  0.10577000  0.50000000  0.42469000  1.0
  Te0+  Te24  1  0.32189000  0.50000000  0.19073000  1.0
  Te0+  Te25  1  0.67811000  0.50000000  0.80927000  1.0
  Te0+  Te26  1  0.82189000  0.00000000  0.69073000  1.0
  Te0+  Te27  1  0.17811000  0.00000000  0.30927000  1.0
  Te0+  Te28  1  0.52186000  0.00000000  0.27864000  1.0
  Te0+  Te29  1  0.47814000  0.00000000  0.72136000  1.0
  Te0+  Te30  1  0.02186000  0.50000000  0.77864000  1.0
  Te0+  Te31  1  0.97814000  0.50000000  0.22136000  1.0
  Te0+  Te32  1  0.58359000  0.50000000  0.09657000  1.0
  Te0+  Te33  1  0.41641000  0.50000000  0.90343000  1.0
  Te0+  Te34  1  0.08359000  0.00000000  0.59657000  1.0
  Te0+  Te35  1  0.91641000  0.00000000  0.40343000  1.0
  Te0+  Te36  1  0.78117000  0.00000000  0.18833000  1.0
  Te0+  Te37  1  0.21883000  0.00000000  0.81167000  1.0
  Te0+  Te38  1  0.28117000  0.50000000  0.68833000  1.0
  Te0+  Te39  1  0.71883000  0.50000000  0.31167000  1.0
  Pd0+  Pd40  1  0.00000000  0.50000000  0.00000000  1.0
  Pd0+  Pd41  1  0.50000000  0.00000000  0.50000000  1.0
  Pd0+  Pd42  1  0.47908000  0.50000000  0.17164000  1.0
  Pd0+  Pd43  1  0.52092000  0.50000000  0.82836000  1.0
  Pd0+  Pd44  1  0.97908000  0.00000000  0.67164000  1.0
  Pd0+  Pd45  1  0.02092000  0.00000000  0.32836000  1.0
