# generated using pymatgen
data_Si3W5
_symmetry_space_group_name_H-M   'P 1'
_cell_length_a   9.64000000
_cell_length_b   9.64000000
_cell_length_c   4.97000000
_cell_angle_alpha   90.00000000
_cell_angle_beta   90.00000000
_cell_angle_gamma   90.00000000
_symmetry_Int_Tables_number   1
_chemical_formula_structural   Si3W5
_chemical_formula_sum   'Si12 W20'
_cell_volume   461.86011200
_cell_formula_units_Z   4
loop_
 _symmetry_equiv_pos_site_id
 _symmetry_equiv_pos_as_xyz
  1  'x, y, z'
loop_
 _atom_type_symbol
 _atom_type_oxidation_number
  Si0+  0.0
  W0+  0.0
loop_
 _atom_site_type_symbol
 _atom_site_label
 _atom_site_symmetry_multiplicity
 _atom_site_fract_x
 _atom_site_fract_y
 _atom_site_fract_z
 _atom_site_occupancy
  Si0+  Si0  1  0.67000000  0.17000000  0.50000000  1.0
  Si0+  Si1  1  0.33000000  0.83000000  0.50000000  1.0
  Si0+  Si2  1  0.33000000  0.17000000  0.00000000  1.0
  Si0+  Si3  1  0.67000000  0.83000000  0.00000000  1.0
  Si0+  Si4  1  0.17000000  0.33000000  0.50000000  1.0
  Si0+  Si5  1  0.83000000  0.67000000  0.50000000  1.0
  Si0+  Si6  1  0.17000000  0.67000000  0.00000000  1.0
  Si0+  Si7  1  0.83000000  0.33000000  0.00000000  1.0
  Si0+  Si8  1  0.00000000  0.00000000  0.25000000  1.0
  Si0+  Si9  1  0.00000000  0.00000000  0.75000000  1.0
  Si0+  Si10  1  0.50000000  0.50000000  0.75000000  1.0
  Si0+  Si11  1  0.50000000  0.50000000  0.25000000  1.0
  W0+  W12  1  0.22300000  0.07400000  0.50000000  1.0
  W0+  W13  1  0.77700000  0.92600000  0.50000000  1.0
  W0+  W14  1  0.77700000  0.07400000  0.00000000  1.0
  W0+  W15  1  0.22300000  0.92600000  0.00000000  1.0
  W0+  W16  1  0.07400000  0.77700000  0.50000000  1.0
  W0+  W17  1  0.92600000  0.22300000  0.50000000  1.0
  W0+  W18  1  0.07400000  0.22300000  0.00000000  1.0
  W0+  W19  1  0.92600000  0.77700000  0.00000000  1.0
  W0+  W20  1  0.72300000  0.57400000  0.00000000  1.0
  W0+  W21  1  0.27700000  0.42600000  0.00000000  1.0
  W0+  W22  1  0.27700000  0.57400000  0.50000000  1.0
  W0+  W23  1  0.72300000  0.42600000  0.50000000  1.0
  W0+  W24  1  0.57400000  0.27700000  0.00000000  1.0
  W0+  W25  1  0.42600000  0.72300000  0.00000000  1.0
  W0+  W26  1  0.57400000  0.72300000  0.50000000  1.0
  W0+  W27  1  0.42600000  0.27700000  0.50000000  1.0
  W0+  W28  1  0.50000000  0.00000000  0.25000000  1.0
  W0+  W29  1  0.50000000  0.00000000  0.75000000  1.0
  W0+  W30  1  0.00000000  0.50000000  0.25000000  1.0
  W0+  W31  1  0.00000000  0.50000000  0.75000000  1.0
