# generated using pymatgen
data_CsC8
_symmetry_space_group_name_H-M   'P 1'
_cell_length_a   4.94500000
_cell_length_b   4.94500000
_cell_length_c   17.76000000
_cell_angle_alpha   90.00000000
_cell_angle_beta   90.00000000
_cell_angle_gamma   120.00000000
_symmetry_Int_Tables_number   1
_chemical_formula_structural   CsC8
_chemical_formula_sum   'Cs3 C24'
_cell_volume   376.10246948
_cell_formula_units_Z   3
loop_
 _symmetry_equiv_pos_site_id
 _symmetry_equiv_pos_as_xyz
  1  'x, y, z'
loop_
 _atom_type_symbol
 _atom_type_oxidation_number
  Cs0+  0.0
  C0+  0.0
loop_
 _atom_site_type_symbol
 _atom_site_label
 _atom_site_symmetry_multiplicity
 _atom_site_fract_x
 _atom_site_fract_y
 _atom_site_fract_z
 _atom_site_occupancy
  Cs0+  Cs0  1  0.00000000  0.00000000  0.83333333  1.0
  Cs0+  Cs1  1  0.00000000  0.00000000  0.50000000  1.0
  Cs0+  Cs2  1  0.00000000  0.00000000  0.16666667  1.0
  C0+  C3  1  0.16670000  0.83336667  0.00000000  1.0
  C0+  C4  1  0.16663333  0.33333333  0.66666667  1.0
  C0+  C5  1  0.66666667  0.83330000  0.33333333  1.0
  C0+  C6  1  0.83330000  0.16663333  0.00000000  1.0
  C0+  C7  1  0.83336667  0.66666667  0.66666667  1.0
  C0+  C8  1  0.33333333  0.16670000  0.33333333  1.0
  C0+  C9  1  0.83336667  0.16670000  0.66666667  1.0
  C0+  C10  1  0.33333333  0.16663333  0.00000000  1.0
  C0+  C11  1  0.83330000  0.66666667  0.33333333  1.0
  C0+  C12  1  0.16663333  0.83330000  0.66666667  1.0
  C0+  C13  1  0.66666667  0.83336667  0.00000000  1.0
  C0+  C14  1  0.16670000  0.33333333  0.33333333  1.0
  C0+  C15  1  0.16667000  0.83333667  0.33333333  1.0
  C0+  C16  1  0.16666333  0.33333333  0.00000000  1.0
  C0+  C17  1  0.66666667  0.83333000  0.66666667  1.0
  C0+  C18  1  0.83333000  0.16666333  0.33333333  1.0
  C0+  C19  1  0.83333667  0.66666667  0.00000000  1.0
  C0+  C20  1  0.33333333  0.16667000  0.66666667  1.0
  C0+  C21  1  0.33333333  0.66666667  0.33333333  1.0
  C0+  C22  1  0.33333333  0.66666667  0.00000000  1.0
  C0+  C23  1  0.33333333  0.66666667  0.66666667  1.0
  C0+  C24  1  0.66666667  0.33333333  0.33333333  1.0
  C0+  C25  1  0.66666667  0.33333333  0.00000000  1.0
  C0+  C26  1  0.66666667  0.33333333  0.66666667  1.0
