# generated using pymatgen
data_Y3(Ge3Pt2)2
_symmetry_space_group_name_H-M   'P 1'
_cell_length_a   8.69220000
_cell_length_b   4.30620000
_cell_length_c   13.16150000
_cell_angle_alpha   90.00000000
_cell_angle_beta   99.45000000
_cell_angle_gamma   90.00000000
_symmetry_Int_Tables_number   1
_chemical_formula_structural   Y3(Ge3Pt2)2
_chemical_formula_sum   'Y6 Ge12 Pt8'
_cell_volume   485.95408816
_cell_formula_units_Z   2
loop_
 _symmetry_equiv_pos_site_id
 _symmetry_equiv_pos_as_xyz
  1  'x, y, z'
loop_
 _atom_type_symbol
 _atom_type_oxidation_number
  Y0+  0.0
  Ge0+  0.0
  Pt0+  0.0
loop_
 _atom_site_type_symbol
 _atom_site_label
 _atom_site_symmetry_multiplicity
 _atom_site_fract_x
 _atom_site_fract_y
 _atom_site_fract_z
 _atom_site_occupancy
  Y0+  Y0  1  0.41110000  0.25000000  0.18650000  1.0
  Y0+  Y1  1  0.58890000  0.75000000  0.81350000  1.0
  Y0+  Y2  1  0.93270000  0.25000000  0.18720000  1.0
  Y0+  Y3  1  0.06730000  0.75000000  0.81280000  1.0
  Y0+  Y4  1  0.23470000  0.25000000  0.43960000  1.0
  Y0+  Y5  1  0.76530000  0.75000000  0.56040000  1.0
  Ge0+  Ge6  1  0.12620000  0.25000000  0.99580000  1.0
  Ge0+  Ge7  1  0.87380000  0.75000000  0.00420000  1.0
  Ge0+  Ge8  1  0.62230000  0.25000000  0.00010000  1.0
  Ge0+  Ge9  1  0.37770000  0.75000000  0.99990000  1.0
  Ge0+  Ge10  1  0.80550000  0.25000000  0.72180000  1.0
  Ge0+  Ge11  1  0.19450000  0.75000000  0.27820000  1.0
  Ge0+  Ge12  1  0.30430000  0.25000000  0.71770000  1.0
  Ge0+  Ge13  1  0.69570000  0.75000000  0.28230000  1.0
  Ge0+  Ge14  1  0.58550000  0.25000000  0.43090000  1.0
  Ge0+  Ge15  1  0.41450000  0.75000000  0.56910000  1.0
  Ge0+  Ge16  1  0.88090000  0.25000000  0.43150000  1.0
  Ge0+  Ge17  1  0.11910000  0.75000000  0.56850000  1.0
  Pt0+  Pt18  1  0.85040000  0.25000000  0.91170000  1.0
  Pt0+  Pt19  1  0.14960000  0.75000000  0.08830000  1.0
  Pt0+  Pt20  1  0.35270000  0.25000000  0.89920000  1.0
  Pt0+  Pt21  1  0.64730000  0.75000000  0.10080000  1.0
  Pt0+  Pt22  1  0.53280000  0.25000000  0.62490000  1.0
  Pt0+  Pt23  1  0.46720000  0.75000000  0.37510000  1.0
  Pt0+  Pt24  1  0.02970000  0.25000000  0.62530000  1.0
  Pt0+  Pt25  1  0.97030000  0.75000000  0.37470000  1.0
