# generated using pymatgen
data_Nb4SiNi
_symmetry_space_group_name_H-M   'P 1'
_cell_length_a   6.18800000
_cell_length_b   6.18800000
_cell_length_c   5.05200000
_cell_angle_alpha   90.00000000
_cell_angle_beta   90.00000000
_cell_angle_gamma   90.00000000
_symmetry_Int_Tables_number   1
_chemical_formula_structural   Nb4SiNi
_chemical_formula_sum   'Nb8 Si2 Ni2'
_cell_volume   193.44786989
_cell_formula_units_Z   2
loop_
 _symmetry_equiv_pos_site_id
 _symmetry_equiv_pos_as_xyz
  1  'x, y, z'
loop_
 _atom_type_symbol
 _atom_type_oxidation_number
  Nb0+  0.0
  Si0+  0.0
  Ni0+  0.0
loop_
 _atom_site_type_symbol
 _atom_site_label
 _atom_site_symmetry_multiplicity
 _atom_site_fract_x
 _atom_site_fract_y
 _atom_site_fract_z
 _atom_site_occupancy
  Nb0+  Nb0  1  0.66200000  0.16200000  0.50000000  1.0
  Nb0+  Nb1  1  0.33800000  0.83800000  0.50000000  1.0
  Nb0+  Nb2  1  0.83800000  0.66200000  0.50000000  1.0
  Nb0+  Nb3  1  0.16200000  0.33800000  0.50000000  1.0
  Nb0+  Nb4  1  0.33800000  0.16200000  0.00000000  1.0
  Nb0+  Nb5  1  0.66200000  0.83800000  0.00000000  1.0
  Nb0+  Nb6  1  0.16200000  0.66200000  0.00000000  1.0
  Nb0+  Nb7  1  0.83800000  0.33800000  0.00000000  1.0
  Si0+  Si8  1  0.50000000  0.50000000  0.25000000  1.0
  Si0+  Si9  1  0.50000000  0.50000000  0.75000000  1.0
  Ni0+  Ni10  1  0.00000000  0.00000000  0.25000000  1.0
  Ni0+  Ni11  1  0.00000000  0.00000000  0.75000000  1.0
