# generated using pymatgen
data_SnPd
_symmetry_space_group_name_H-M   'P 1'
_cell_length_a   6.32600000
_cell_length_b   6.12700000
_cell_length_c   3.90220000
_cell_angle_alpha   90.00000000
_cell_angle_beta   90.00000000
_cell_angle_gamma   90.00000000
_symmetry_Int_Tables_number   1
_chemical_formula_structural   SnPd
_chemical_formula_sum   'Sn4 Pd4'
_cell_volume   151.24693848
_cell_formula_units_Z   4
loop_
 _symmetry_equiv_pos_site_id
 _symmetry_equiv_pos_as_xyz
  1  'x, y, z'
loop_
 _atom_type_symbol
 _atom_type_oxidation_number
  Sn0+  0.0
  Pd0+  0.0
loop_
 _atom_site_type_symbol
 _atom_site_label
 _atom_site_symmetry_multiplicity
 _atom_site_fract_x
 _atom_site_fract_y
 _atom_site_fract_z
 _atom_site_occupancy
  Sn0+  Sn0  1  0.90800000  0.68900000  0.25000000  1.0
  Sn0+  Sn1  1  0.59200000  0.18900000  0.25000000  1.0
  Sn0+  Sn2  1  0.09200000  0.31100000  0.75000000  1.0
  Sn0+  Sn3  1  0.40800000  0.81100000  0.75000000  1.0
  Pd0+  Pd4  1  0.31400000  0.51100000  0.25000000  1.0
  Pd0+  Pd5  1  0.18600000  0.01100000  0.25000000  1.0
  Pd0+  Pd6  1  0.68600000  0.48900000  0.75000000  1.0
  Pd0+  Pd7  1  0.81400000  0.98900000  0.75000000  1.0
