# generated using pymatgen
data_GePt
_symmetry_space_group_name_H-M   'P 1'
_cell_length_a   6.08800000
_cell_length_b   5.73300000
_cell_length_c   3.70100000
_cell_angle_alpha   90.00000000
_cell_angle_beta   90.00000000
_cell_angle_gamma   90.00000000
_symmetry_Int_Tables_number   1
_chemical_formula_structural   GePt
_chemical_formula_sum   'Ge4 Pt4'
_cell_volume   129.17416730
_cell_formula_units_Z   4
loop_
 _symmetry_equiv_pos_site_id
 _symmetry_equiv_pos_as_xyz
  1  'x, y, z'
loop_
 _atom_type_symbol
 _atom_type_oxidation_number
  Ge0+  0.0
  Pt0+  0.0
loop_
 _atom_site_type_symbol
 _atom_site_label
 _atom_site_symmetry_multiplicity
 _atom_site_fract_x
 _atom_site_fract_y
 _atom_site_fract_z
 _atom_site_occupancy
  Ge0+  Ge0  1  0.91000000  0.69500000  0.25000000  1.0
  Ge0+  Ge1  1  0.59000000  0.19500000  0.25000000  1.0
  Ge0+  Ge2  1  0.09000000  0.30500000  0.75000000  1.0
  Ge0+  Ge3  1  0.41000000  0.80500000  0.75000000  1.0
  Pt0+  Pt4  1  0.30500000  0.51000000  0.25000000  1.0
  Pt0+  Pt5  1  0.19500000  0.01000000  0.25000000  1.0
  Pt0+  Pt6  1  0.69500000  0.49000000  0.75000000  1.0
  Pt0+  Pt7  1  0.80500000  0.99000000  0.75000000  1.0
