# generated using pymatgen
data_Y2AlGe3
_symmetry_space_group_name_H-M   'P 1'
_cell_length_a   6.78500000
_cell_length_b   4.18900000
_cell_length_c   17.67600000
_cell_angle_alpha   90.00000000
_cell_angle_beta   90.00000000
_cell_angle_gamma   90.00000000
_symmetry_Int_Tables_number   1
_chemical_formula_structural   Y2AlGe3
_chemical_formula_sum   'Y8 Al4 Ge12'
_cell_volume   502.39372374
_cell_formula_units_Z   4
loop_
 _symmetry_equiv_pos_site_id
 _symmetry_equiv_pos_as_xyz
  1  'x, y, z'
loop_
 _atom_type_symbol
 _atom_type_oxidation_number
  Y0+  0.0
  Al0+  0.0
  Ge0+  0.0
loop_
 _atom_site_type_symbol
 _atom_site_label
 _atom_site_symmetry_multiplicity
 _atom_site_fract_x
 _atom_site_fract_y
 _atom_site_fract_z
 _atom_site_occupancy
  Y0+  Y0  1  0.66650000  0.25000000  0.41510000  1.0
  Y0+  Y1  1  0.16650000  0.25000000  0.08490000  1.0
  Y0+  Y2  1  0.33350000  0.75000000  0.58490000  1.0
  Y0+  Y3  1  0.83350000  0.75000000  0.91510000  1.0
  Y0+  Y4  1  0.16840000  0.25000000  0.29760000  1.0
  Y0+  Y5  1  0.66840000  0.25000000  0.20240000  1.0
  Y0+  Y6  1  0.83160000  0.75000000  0.70240000  1.0
  Y0+  Y7  1  0.33160000  0.75000000  0.79760000  1.0
  Al0+  Al8  1  0.94920000  0.25000000  0.56460000  1.0
  Al0+  Al9  1  0.44920000  0.25000000  0.93540000  1.0
  Al0+  Al10  1  0.05080000  0.75000000  0.43540000  1.0
  Al0+  Al11  1  0.55080000  0.75000000  0.06460000  1.0
  Ge0+  Ge12  1  0.14510000  0.25000000  0.68800000  1.0
  Ge0+  Ge13  1  0.64510000  0.25000000  0.81200000  1.0
  Ge0+  Ge14  1  0.85490000  0.75000000  0.31200000  1.0
  Ge0+  Ge15  1  0.35490000  0.75000000  0.18800000  1.0
  Ge0+  Ge16  1  0.24780000  0.25000000  0.46590000  1.0
  Ge0+  Ge17  1  0.74780000  0.25000000  0.03410000  1.0
  Ge0+  Ge18  1  0.75220000  0.75000000  0.53410000  1.0
  Ge0+  Ge19  1  0.25220000  0.75000000  0.96590000  1.0
  Ge0+  Ge20  1  0.53380000  0.25000000  0.67400000  1.0
  Ge0+  Ge21  1  0.03380000  0.25000000  0.82600000  1.0
  Ge0+  Ge22  1  0.46620000  0.75000000  0.32600000  1.0
  Ge0+  Ge23  1  0.96620000  0.75000000  0.17400000  1.0
