# generated using pymatgen
data_B5Mo2
_symmetry_space_group_name_H-M   'P 1'
_cell_length_a   3.01100000
_cell_length_b   3.01100000
_cell_length_c   20.92999000
_cell_angle_alpha   90.00000000
_cell_angle_beta   90.00000000
_cell_angle_gamma   120.00000000
_symmetry_Int_Tables_number   1
_chemical_formula_structural   B5Mo2
_chemical_formula_sum   'B15 Mo6'
_cell_volume   164.33163020
_cell_formula_units_Z   3
loop_
 _symmetry_equiv_pos_site_id
 _symmetry_equiv_pos_as_xyz
  1  'x, y, z'
loop_
 _atom_type_symbol
 _atom_type_oxidation_number
  B0+  0.0
  Mo0+  0.0
loop_
 _atom_site_type_symbol
 _atom_site_label
 _atom_site_symmetry_multiplicity
 _atom_site_fract_x
 _atom_site_fract_y
 _atom_site_fract_z
 _atom_site_occupancy
  B0+  B0  1  0.00000000  0.00000000  0.66666667  1.0
  B0+  B1  1  0.00000000  0.00000000  0.33333333  1.0
  B0+  B2  1  0.33333333  0.66666667  0.00000000  1.0
  B0+  B3  1  0.33333333  0.66666667  0.66666667  1.0
  B0+  B4  1  0.66666667  0.33333333  0.33333333  1.0
  B0+  B5  1  0.66666667  0.33333333  0.00000000  1.0
  B0+  B6  1  0.00000000  0.00000000  0.81400000  1.0
  B0+  B7  1  0.00000000  0.00000000  0.18600000  1.0
  B0+  B8  1  0.33333333  0.66666667  0.14733333  1.0
  B0+  B9  1  0.33333333  0.66666667  0.51933333  1.0
  B0+  B10  1  0.66666667  0.33333333  0.48066667  1.0
  B0+  B11  1  0.66666667  0.33333333  0.85266667  1.0
  B0+  B12  1  0.00000000  0.00000000  0.50000000  1.0
  B0+  B13  1  0.33333333  0.66666667  0.83333333  1.0
  B0+  B14  1  0.66666667  0.33333333  0.16666667  1.0
  Mo0+  Mo15  1  0.00000000  0.00000000  0.92500000  1.0
  Mo0+  Mo16  1  0.00000000  0.00000000  0.07500000  1.0
  Mo0+  Mo17  1  0.33333333  0.66666667  0.25833333  1.0
  Mo0+  Mo18  1  0.33333333  0.66666667  0.40833333  1.0
  Mo0+  Mo19  1  0.66666667  0.33333333  0.59166667  1.0
  Mo0+  Mo20  1  0.66666667  0.33333333  0.74166667  1.0
