# generated using pymatgen
data_P2W7O25
_symmetry_space_group_name_H-M   'P 1'
_cell_length_a   5.29100000
_cell_length_b   6.55700000
_cell_length_c   26.65400000
_cell_angle_alpha   90.00000000
_cell_angle_beta   90.19000000
_cell_angle_gamma   90.00000000
_symmetry_Int_Tables_number   1
_chemical_formula_structural   P2W7O25
_chemical_formula_sum   'P4 W14 O50'
_cell_volume   924.70445653
_cell_formula_units_Z   2
loop_
 _symmetry_equiv_pos_site_id
 _symmetry_equiv_pos_as_xyz
  1  'x, y, z'
loop_
 _atom_type_symbol
 _atom_type_oxidation_number
  P4+  4.0
  W6+  6.0
  O2-  -2.0
loop_
 _atom_site_type_symbol
 _atom_site_label
 _atom_site_symmetry_multiplicity
 _atom_site_fract_x
 _atom_site_fract_y
 _atom_site_fract_z
 _atom_site_occupancy
  P4+  P0  1  0.01800000  0.80130000  0.20890000  1.0
  P4+  P1  1  0.51800000  0.69870000  0.70890000  1.0
  P4+  P2  1  0.98200000  0.19870000  0.79110000  1.0
  P4+  P3  1  0.48200000  0.30130000  0.29110000  1.0
  W6+  W4  1  0.50000000  0.00000000  0.50000000  1.0
  W6+  W5  1  0.00000000  0.50000000  0.00000000  1.0
  W6+  W6  1  0.49250000  0.65590000  0.38644000  1.0
  W6+  W7  1  0.99250000  0.84410000  0.88644000  1.0
  W6+  W8  1  0.50750000  0.34410000  0.61356000  1.0
  W6+  W9  1  0.00750000  0.15590000  0.11356000  1.0
  W6+  W10  1  0.50370000  0.49240000  0.17035000  1.0
  W6+  W11  1  0.00370000  0.00760000  0.67035000  1.0
  W6+  W12  1  0.49630000  0.50760000  0.82965000  1.0
  W6+  W13  1  0.99630000  0.99240000  0.32965000  1.0
  W6+  W14  1  0.49950000  0.82760000  0.05595000  1.0
  W6+  W15  1  0.99950000  0.67240000  0.55595000  1.0
  W6+  W16  1  0.50050000  0.17240000  0.94405000  1.0
  W6+  W17  1  0.00050000  0.32760000  0.44405000  1.0
  O2-  O18  1  0.00000000  0.50000000  0.50000000  1.0
  O2-  O19  1  0.50000000  0.00000000  0.00000000  1.0
  O2-  O20  1  0.00500000  0.66700000  0.94000000  1.0
  O2-  O21  1  0.50500000  0.83300000  0.44000000  1.0
  O2-  O22  1  0.99500000  0.33300000  0.06000000  1.0
  O2-  O23  1  0.49500000  0.16700000  0.56000000  1.0
  O2-  O24  1  0.48300000  0.65500000  0.11510000  1.0
  O2-  O25  1  0.98300000  0.84500000  0.61510000  1.0
  O2-  O26  1  0.51700000  0.34500000  0.88490000  1.0
  O2-  O27  1  0.01700000  0.15500000  0.38490000  1.0
  O2-  O28  1  0.48300000  0.49400000  0.32320000  1.0
  O2-  O29  1  0.98300000  0.00600000  0.82320000  1.0
  O2-  O30  1  0.51700000  0.50600000  0.67680000  1.0
  O2-  O31  1  0.01700000  0.99400000  0.17680000  1.0
  O2-  O32  1  0.97100000  0.86200000  0.26320000  1.0
  O2-  O33  1  0.47100000  0.63800000  0.76320000  1.0
  O2-  O34  1  0.02900000  0.13800000  0.73680000  1.0
  O2-  O35  1  0.52900000  0.36200000  0.23680000  1.0
  O2-  O36  1  0.21500000  0.69000000  0.03190000  1.0
  O2-  O37  1  0.71500000  0.81000000  0.53190000  1.0
  O2-  O38  1  0.78500000  0.31000000  0.96810000  1.0
  O2-  O39  1  0.28500000  0.19000000  0.46810000  1.0
  O2-  O40  1  0.71500000  0.64500000  0.02460000  1.0
  O2-  O41  1  0.21500000  0.85500000  0.52460000  1.0
  O2-  O42  1  0.28500000  0.35500000  0.97540000  1.0
  O2-  O43  1  0.78500000  0.14500000  0.47540000  1.0
  O2-  O44  1  0.21700000  0.51700000  0.40730000  1.0
  O2-  O45  1  0.71700000  0.98300000  0.90730000  1.0
  O2-  O46  1  0.78300000  0.48300000  0.59270000  1.0
  O2-  O47  1  0.28300000  0.01700000  0.09270000  1.0
  O2-  O48  1  0.71400000  0.47700000  0.41660000  1.0
  O2-  O49  1  0.21400000  0.02300000  0.91660000  1.0
  O2-  O50  1  0.28600000  0.52300000  0.58340000  1.0
  O2-  O51  1  0.78600000  0.97700000  0.08340000  1.0
  O2-  O52  1  0.26900000  0.84700000  0.34880000  1.0
  O2-  O53  1  0.76900000  0.65300000  0.84880000  1.0
  O2-  O54  1  0.73100000  0.15300000  0.65120000  1.0
  O2-  O55  1  0.23100000  0.34700000  0.15120000  1.0
  O2-  O56  1  0.77500000  0.81000000  0.35570000  1.0
  O2-  O57  1  0.27500000  0.69000000  0.85570000  1.0
  O2-  O58  1  0.22500000  0.19000000  0.64430000  1.0
  O2-  O59  1  0.72500000  0.31000000  0.14430000  1.0
  O2-  O60  1  0.27100000  0.70100000  0.20350000  1.0
  O2-  O61  1  0.77100000  0.79900000  0.70350000  1.0
  O2-  O62  1  0.72900000  0.29900000  0.79650000  1.0
  O2-  O63  1  0.22900000  0.20100000  0.29650000  1.0
  O2-  O64  1  0.79900000  0.65800000  0.19500000  1.0
  O2-  O65  1  0.29900000  0.84200000  0.69500000  1.0
  O2-  O66  1  0.20100000  0.34200000  0.80500000  1.0
  O2-  O67  1  0.70100000  0.15800000  0.30500000  1.0
