# generated using pymatgen
data_Ba2(SnSb2)3
_symmetry_space_group_name_H-M   'P 1'
_cell_length_a   13.35100000
_cell_length_b   4.41000000
_cell_length_c   24.44900000
_cell_angle_alpha   90.00000000
_cell_angle_beta   90.00000000
_cell_angle_gamma   90.00000000
_symmetry_Int_Tables_number   1
_chemical_formula_structural   Ba2(SnSb2)3
_chemical_formula_sum   'Ba8 Sn12 Sb24'
_cell_volume   1439.50602159
_cell_formula_units_Z   4
loop_
 _symmetry_equiv_pos_site_id
 _symmetry_equiv_pos_as_xyz
  1  'x, y, z'
loop_
 _atom_type_symbol
 _atom_type_oxidation_number
  Ba2+  2.0
  Sn2+  2.0
  Sn4+  4.0
  Sb2-  -2.0
loop_
 _atom_site_type_symbol
 _atom_site_label
 _atom_site_symmetry_multiplicity
 _atom_site_fract_x
 _atom_site_fract_y
 _atom_site_fract_z
 _atom_site_occupancy
  Ba2+  Ba0  1  0.63120000  0.25000000  0.39076000  1.0
  Ba2+  Ba1  1  0.13120000  0.25000000  0.10924000  1.0
  Ba2+  Ba2  1  0.36880000  0.75000000  0.60924000  1.0
  Ba2+  Ba3  1  0.86880000  0.75000000  0.89076000  1.0
  Ba2+  Ba4  1  0.54840000  0.25000000  0.07957000  1.0
  Ba2+  Ba5  1  0.04840000  0.25000000  0.42043000  1.0
  Ba2+  Ba6  1  0.45160000  0.75000000  0.92043000  1.0
  Ba2+  Ba7  1  0.95160000  0.75000000  0.57957000  1.0
  Sn2+  Sn8  1  0.54170000  0.25000000  0.25061000  1.0
  Sn2+  Sn9  1  0.04170000  0.25000000  0.24939000  1.0
  Sn2+  Sn10  1  0.45830000  0.75000000  0.74939000  1.0
  Sn2+  Sn11  1  0.95830000  0.75000000  0.75061000  1.0
  Sn2+  Sn12  1  0.82050000  0.25000000  0.09761000  1.0
  Sn2+  Sn13  1  0.32050000  0.25000000  0.40239000  1.0
  Sn2+  Sn14  1  0.17950000  0.75000000  0.90239000  1.0
  Sn2+  Sn15  1  0.67950000  0.75000000  0.59761000  1.0
  Sn4+  Sn16  1  0.69480000  0.25000000  0.73405000  1.0
  Sn4+  Sn17  1  0.19480000  0.25000000  0.76595000  1.0
  Sn4+  Sn18  1  0.30520000  0.75000000  0.26595000  1.0
  Sn4+  Sn19  1  0.80520000  0.75000000  0.23405000  1.0
  Sb2-  Sb20  1  0.66090000  0.25000000  0.92242000  1.0
  Sb2-  Sb21  1  0.16090000  0.25000000  0.57758000  1.0
  Sb2-  Sb22  1  0.33910000  0.75000000  0.07758000  1.0
  Sb2-  Sb23  1  0.83910000  0.75000000  0.42242000  1.0
  Sb2-  Sb24  1  0.80170000  0.25000000  0.49829000  1.0
  Sb2-  Sb25  1  0.30170000  0.25000000  0.00171000  1.0
  Sb2-  Sb26  1  0.19830000  0.75000000  0.50171000  1.0
  Sb2-  Sb27  1  0.69830000  0.75000000  0.99829000  1.0
  Sb2-  Sb28  1  0.84870000  0.25000000  0.30326000  1.0
  Sb2-  Sb29  1  0.34870000  0.25000000  0.19674000  1.0
  Sb2-  Sb30  1  0.15130000  0.75000000  0.69674000  1.0
  Sb2-  Sb31  1  0.65130000  0.75000000  0.80326000  1.0
  Sb2-  Sb32  1  0.88380000  0.25000000  0.68514000  1.0
  Sb2-  Sb33  1  0.38380000  0.25000000  0.81486000  1.0
  Sb2-  Sb34  1  0.11620000  0.75000000  0.31486000  1.0
  Sb2-  Sb35  1  0.61620000  0.75000000  0.18514000  1.0
  Sb2-  Sb36  1  0.92970000  0.25000000  0.99622000  1.0
  Sb2-  Sb37  1  0.42970000  0.25000000  0.50378000  1.0
  Sb2-  Sb38  1  0.07030000  0.75000000  0.00378000  1.0
  Sb2-  Sb39  1  0.57030000  0.75000000  0.49622000  1.0
  Sb2-  Sb40  1  0.06530000  0.25000000  0.85575000  1.0
  Sb2-  Sb41  1  0.56530000  0.25000000  0.64425000  1.0
  Sb2-  Sb42  1  0.93470000  0.75000000  0.14425000  1.0
  Sb2-  Sb43  1  0.43470000  0.75000000  0.35575000  1.0
