# generated using pymatgen
data_Sr(NiP)2
_symmetry_space_group_name_H-M   'P 1'
_cell_length_a   3.95100000
_cell_length_b   11.85300000
_cell_length_c   10.43200000
_cell_angle_alpha   90.00000000
_cell_angle_beta   90.00000000
_cell_angle_gamma   90.00000000
_symmetry_Int_Tables_number   1
_chemical_formula_structural   Sr(NiP)2
_chemical_formula_sum   'Sr6 Ni12 P12'
_cell_volume   488.54310970
_cell_formula_units_Z   6
loop_
 _symmetry_equiv_pos_site_id
 _symmetry_equiv_pos_as_xyz
  1  'x, y, z'
loop_
 _atom_type_symbol
 _atom_type_oxidation_number
  Sr0+  0.0
  Ni0+  0.0
  P0+  0.0
loop_
 _atom_site_type_symbol
 _atom_site_label
 _atom_site_symmetry_multiplicity
 _atom_site_fract_x
 _atom_site_fract_y
 _atom_site_fract_z
 _atom_site_occupancy
  Sr0+  Sr0  1  0.00000000  0.00000000  0.00000000  1.0
  Sr0+  Sr1  1  0.50000000  0.50000000  0.50000000  1.0
  Sr0+  Sr2  1  0.00000000  0.31770000  0.00000000  1.0
  Sr0+  Sr3  1  0.00000000  0.68230000  0.00000000  1.0
  Sr0+  Sr4  1  0.50000000  0.81770000  0.50000000  1.0
  Sr0+  Sr5  1  0.50000000  0.18230000  0.50000000  1.0
  Ni0+  Ni6  1  0.00000000  0.15760000  0.74030000  1.0
  Ni0+  Ni7  1  0.00000000  0.84240000  0.25970000  1.0
  Ni0+  Ni8  1  0.00000000  0.15760000  0.25970000  1.0
  Ni0+  Ni9  1  0.00000000  0.84240000  0.74030000  1.0
  Ni0+  Ni10  1  0.50000000  0.65760000  0.24030000  1.0
  Ni0+  Ni11  1  0.50000000  0.34240000  0.75970000  1.0
  Ni0+  Ni12  1  0.50000000  0.65760000  0.75970000  1.0
  Ni0+  Ni13  1  0.50000000  0.34240000  0.24030000  1.0
  Ni0+  Ni14  1  0.50000000  0.00000000  0.73020000  1.0
  Ni0+  Ni15  1  0.50000000  0.00000000  0.26980000  1.0
  Ni0+  Ni16  1  0.00000000  0.50000000  0.23020000  1.0
  Ni0+  Ni17  1  0.00000000  0.50000000  0.76980000  1.0
  P0+  P18  1  0.00000000  0.00000000  0.61750000  1.0
  P0+  P19  1  0.00000000  0.00000000  0.38250000  1.0
  P0+  P20  1  0.50000000  0.50000000  0.11750000  1.0
  P0+  P21  1  0.50000000  0.50000000  0.88250000  1.0
  P0+  P22  1  0.00000000  0.33580000  0.65730000  1.0
  P0+  P23  1  0.00000000  0.66420000  0.34270000  1.0
  P0+  P24  1  0.00000000  0.33580000  0.34270000  1.0
  P0+  P25  1  0.00000000  0.66420000  0.65730000  1.0
  P0+  P26  1  0.50000000  0.83580000  0.15730000  1.0
  P0+  P27  1  0.50000000  0.16420000  0.84270000  1.0
  P0+  P28  1  0.50000000  0.83580000  0.84270000  1.0
  P0+  P29  1  0.50000000  0.16420000  0.15730000  1.0
