# generated using pymatgen
data_YGe3
_symmetry_space_group_name_H-M   'P 1'
_cell_length_a   4.04900000
_cell_length_b   20.77900000
_cell_length_c   3.91840000
_cell_angle_alpha   90.00000000
_cell_angle_beta   90.00000000
_cell_angle_gamma   90.00000000
_symmetry_Int_Tables_number   1
_chemical_formula_structural   YGe3
_chemical_formula_sum   'Y4 Ge12'
_cell_volume   329.67133565
_cell_formula_units_Z   4
loop_
 _symmetry_equiv_pos_site_id
 _symmetry_equiv_pos_as_xyz
  1  'x, y, z'
loop_
 _atom_type_symbol
 _atom_type_oxidation_number
  Y0+  0.0
  Ge0+  0.0
loop_
 _atom_site_type_symbol
 _atom_site_label
 _atom_site_symmetry_multiplicity
 _atom_site_fract_x
 _atom_site_fract_y
 _atom_site_fract_z
 _atom_site_occupancy
  Y0+  Y0  1  0.00000000  0.41810000  0.25000000  1.0
  Y0+  Y1  1  0.00000000  0.58190000  0.75000000  1.0
  Y0+  Y2  1  0.50000000  0.91810000  0.25000000  1.0
  Y0+  Y3  1  0.50000000  0.08190000  0.75000000  1.0
  Ge0+  Ge4  1  0.00000000  0.04560000  0.25000000  1.0
  Ge0+  Ge5  1  0.00000000  0.95440000  0.75000000  1.0
  Ge0+  Ge6  1  0.50000000  0.54560000  0.25000000  1.0
  Ge0+  Ge7  1  0.50000000  0.45440000  0.75000000  1.0
  Ge0+  Ge8  1  0.50000000  0.19300000  0.25000000  1.0
  Ge0+  Ge9  1  0.50000000  0.80700000  0.75000000  1.0
  Ge0+  Ge10  1  0.00000000  0.69300000  0.25000000  1.0
  Ge0+  Ge11  1  0.00000000  0.30700000  0.75000000  1.0
  Ge0+  Ge12  1  0.50000000  0.31020000  0.25000000  1.0
  Ge0+  Ge13  1  0.50000000  0.68980000  0.75000000  1.0
  Ge0+  Ge14  1  0.00000000  0.81020000  0.25000000  1.0
  Ge0+  Ge15  1  0.00000000  0.18980000  0.75000000  1.0
