# generated using pymatgen
data_NbSiPt
_symmetry_space_group_name_H-M   'P 1'
_cell_length_a   6.41100000
_cell_length_b   3.81700000
_cell_length_c   7.35600000
_cell_angle_alpha   90.00000000
_cell_angle_beta   90.00000000
_cell_angle_gamma   90.00000000
_symmetry_Int_Tables_number   1
_chemical_formula_structural   NbSiPt
_chemical_formula_sum   'Nb4 Si4 Pt4'
_cell_volume   180.00710917
_cell_formula_units_Z   4
loop_
 _symmetry_equiv_pos_site_id
 _symmetry_equiv_pos_as_xyz
  1  'x, y, z'
loop_
 _atom_type_symbol
 _atom_type_oxidation_number
  Nb0+  0.0
  Si0+  0.0
  Pt0+  0.0
loop_
 _atom_site_type_symbol
 _atom_site_label
 _atom_site_symmetry_multiplicity
 _atom_site_fract_x
 _atom_site_fract_y
 _atom_site_fract_z
 _atom_site_occupancy
  Nb0+  Nb0  1  0.52640000  0.25000000  0.33130000  1.0
  Nb0+  Nb1  1  0.02640000  0.25000000  0.16870000  1.0
  Nb0+  Nb2  1  0.47360000  0.75000000  0.66870000  1.0
  Nb0+  Nb3  1  0.97360000  0.75000000  0.83130000  1.0
  Si0+  Si4  1  0.27060000  0.25000000  0.86920000  1.0
  Si0+  Si5  1  0.77060000  0.25000000  0.63080000  1.0
  Si0+  Si6  1  0.72940000  0.75000000  0.13080000  1.0
  Si0+  Si7  1  0.22940000  0.75000000  0.36920000  1.0
  Pt0+  Pt8  1  0.65060000  0.25000000  0.93630000  1.0
  Pt0+  Pt9  1  0.15060000  0.25000000  0.56370000  1.0
  Pt0+  Pt10  1  0.34940000  0.75000000  0.06370000  1.0
  Pt0+  Pt11  1  0.84940000  0.75000000  0.43630000  1.0
