# generated using pymatgen
data_Ba6Si25
_symmetry_space_group_name_H-M   'P 1'
_cell_length_a   14.06850000
_cell_length_b   14.06850000
_cell_length_c   14.06850000
_cell_angle_alpha   90.00000000
_cell_angle_beta   90.00000000
_cell_angle_gamma   90.00000000
_symmetry_Int_Tables_number   1
_chemical_formula_structural   Ba6Si25
_chemical_formula_sum   'Ba24 Si100'
_cell_volume   2784.47539592
_cell_formula_units_Z   4
loop_
 _symmetry_equiv_pos_site_id
 _symmetry_equiv_pos_as_xyz
  1  'x, y, z'
loop_
 _atom_type_symbol
 _atom_type_oxidation_number
  Ba0+  0.0
  Si0+  0.0
loop_
 _atom_site_type_symbol
 _atom_site_label
 _atom_site_symmetry_multiplicity
 _atom_site_fract_x
 _atom_site_fract_y
 _atom_site_fract_z
 _atom_site_occupancy
  Ba0+  Ba0  1  0.06130000  0.93870000  0.43870000  1.0
  Ba0+  Ba1  1  0.43870000  0.06130000  0.93870000  1.0
  Ba0+  Ba2  1  0.93870000  0.43870000  0.06130000  1.0
  Ba0+  Ba3  1  0.56130000  0.56130000  0.56130000  1.0
  Ba0+  Ba4  1  0.68870000  0.31130000  0.81130000  1.0
  Ba0+  Ba5  1  0.31130000  0.81130000  0.68870000  1.0
  Ba0+  Ba6  1  0.81130000  0.68870000  0.31130000  1.0
  Ba0+  Ba7  1  0.18870000  0.18870000  0.18870000  1.0
  Ba0+  Ba8  1  0.37500000  0.62500000  0.12500000  1.0
  Ba0+  Ba9  1  0.12500000  0.37500000  0.62500000  1.0
  Ba0+  Ba10  1  0.62500000  0.12500000  0.37500000  1.0
  Ba0+  Ba11  1  0.87500000  0.87500000  0.87500000  1.0
  Ba0+  Ba12  1  0.19280000  0.55720000  0.37500000  1.0
  Ba0+  Ba13  1  0.30720000  0.44280000  0.87500000  1.0
  Ba0+  Ba14  1  0.80720000  0.05720000  0.12500000  1.0
  Ba0+  Ba15  1  0.69280000  0.94280000  0.62500000  1.0
  Ba0+  Ba16  1  0.55720000  0.37500000  0.19280000  1.0
  Ba0+  Ba17  1  0.44280000  0.87500000  0.30720000  1.0
  Ba0+  Ba18  1  0.05720000  0.12500000  0.80720000  1.0
  Ba0+  Ba19  1  0.94280000  0.62500000  0.69280000  1.0
  Ba0+  Ba20  1  0.37500000  0.19280000  0.55720000  1.0
  Ba0+  Ba21  1  0.87500000  0.30720000  0.44280000  1.0
  Ba0+  Ba22  1  0.12500000  0.80720000  0.05720000  1.0
  Ba0+  Ba23  1  0.62500000  0.69280000  0.94280000  1.0
  Si0+  Si24  1  0.21380000  0.78620000  0.28620000  1.0
  Si0+  Si25  1  0.28620000  0.21380000  0.78620000  1.0
  Si0+  Si26  1  0.78620000  0.28620000  0.21380000  1.0
  Si0+  Si27  1  0.71380000  0.71380000  0.71380000  1.0
  Si0+  Si28  1  0.53620000  0.46380000  0.96380000  1.0
  Si0+  Si29  1  0.46380000  0.96380000  0.53620000  1.0
  Si0+  Si30  1  0.96380000  0.53620000  0.46380000  1.0
  Si0+  Si31  1  0.03620000  0.03620000  0.03620000  1.0
  Si0+  Si32  1  0.25000000  0.79270000  0.45380000  1.0
  Si0+  Si33  1  0.25000000  0.20730000  0.95380000  1.0
  Si0+  Si34  1  0.75000000  0.29270000  0.04620000  1.0
  Si0+  Si35  1  0.75000000  0.70730000  0.54620000  1.0
  Si0+  Si36  1  0.79270000  0.45380000  0.25000000  1.0
  Si0+  Si37  1  0.20730000  0.95380000  0.25000000  1.0
  Si0+  Si38  1  0.29270000  0.04620000  0.75000000  1.0
  Si0+  Si39  1  0.70730000  0.54620000  0.75000000  1.0
  Si0+  Si40  1  0.45380000  0.25000000  0.79270000  1.0
  Si0+  Si41  1  0.95380000  0.25000000  0.20730000  1.0
  Si0+  Si42  1  0.04620000  0.75000000  0.29270000  1.0
  Si0+  Si43  1  0.54620000  0.75000000  0.70730000  1.0
  Si0+  Si44  1  0.50000000  0.29620000  0.95730000  1.0
  Si0+  Si45  1  0.50000000  0.79620000  0.54270000  1.0
  Si0+  Si46  1  0.00000000  0.70380000  0.45730000  1.0
  Si0+  Si47  1  0.00000000  0.20380000  0.04270000  1.0
  Si0+  Si48  1  0.95730000  0.50000000  0.29620000  1.0
  Si0+  Si49  1  0.54270000  0.50000000  0.79620000  1.0
  Si0+  Si50  1  0.45730000  0.00000000  0.70380000  1.0
  Si0+  Si51  1  0.04270000  0.00000000  0.20380000  1.0
  Si0+  Si52  1  0.29620000  0.95730000  0.50000000  1.0
  Si0+  Si53  1  0.79620000  0.54270000  0.50000000  1.0
  Si0+  Si54  1  0.70380000  0.45730000  0.00000000  1.0
  Si0+  Si55  1  0.20380000  0.04270000  0.00000000  1.0
  Si0+  Si56  1  0.83040000  0.91960000  0.37500000  1.0
  Si0+  Si57  1  0.66960000  0.08040000  0.87500000  1.0
  Si0+  Si58  1  0.16960000  0.41960000  0.12500000  1.0
  Si0+  Si59  1  0.33040000  0.58040000  0.62500000  1.0
  Si0+  Si60  1  0.91960000  0.37500000  0.83040000  1.0
  Si0+  Si61  1  0.08040000  0.87500000  0.66960000  1.0
  Si0+  Si62  1  0.41960000  0.12500000  0.16960000  1.0
  Si0+  Si63  1  0.58040000  0.62500000  0.33040000  1.0
  Si0+  Si64  1  0.37500000  0.83040000  0.91960000  1.0
  Si0+  Si65  1  0.87500000  0.66960000  0.08040000  1.0
  Si0+  Si66  1  0.12500000  0.16960000  0.41960000  1.0
  Si0+  Si67  1  0.62500000  0.33040000  0.58040000  1.0
  Si0+  Si68  1  0.37480000  0.68940000  0.48870000  1.0
  Si0+  Si69  1  0.12520000  0.31060000  0.98870000  1.0
  Si0+  Si70  1  0.62520000  0.18940000  0.01130000  1.0
  Si0+  Si71  1  0.87480000  0.81060000  0.51130000  1.0
  Si0+  Si72  1  0.68940000  0.48870000  0.37480000  1.0
  Si0+  Si73  1  0.31060000  0.98870000  0.12520000  1.0
  Si0+  Si74  1  0.18940000  0.01130000  0.62520000  1.0
  Si0+  Si75  1  0.81060000  0.51130000  0.87480000  1.0
  Si0+  Si76  1  0.48870000  0.37480000  0.68940000  1.0
  Si0+  Si77  1  0.98870000  0.12520000  0.31060000  1.0
  Si0+  Si78  1  0.01130000  0.62520000  0.18940000  1.0
  Si0+  Si79  1  0.51130000  0.87480000  0.81060000  1.0
  Si0+  Si80  1  0.37520000  0.26130000  0.06060000  1.0
  Si0+  Si81  1  0.62480000  0.76130000  0.43940000  1.0
  Si0+  Si82  1  0.12480000  0.73870000  0.56060000  1.0
  Si0+  Si83  1  0.87520000  0.23870000  0.93940000  1.0
  Si0+  Si84  1  0.06060000  0.37520000  0.26130000  1.0
  Si0+  Si85  1  0.43940000  0.62480000  0.76130000  1.0
  Si0+  Si86  1  0.56060000  0.12480000  0.73870000  1.0
  Si0+  Si87  1  0.93940000  0.87520000  0.23870000  1.0
  Si0+  Si88  1  0.26130000  0.06060000  0.37520000  1.0
  Si0+  Si89  1  0.76130000  0.43940000  0.62480000  1.0
  Si0+  Si90  1  0.73870000  0.56060000  0.12480000  1.0
  Si0+  Si91  1  0.23870000  0.93940000  0.87520000  1.0
  Si0+  Si92  1  0.17310000  0.61050000  0.66560000  1.0
  Si0+  Si93  1  0.32690000  0.38950000  0.16560000  1.0
  Si0+  Si94  1  0.82690000  0.11050000  0.83440000  1.0
  Si0+  Si95  1  0.67310000  0.88950000  0.33440000  1.0
  Si0+  Si96  1  0.61050000  0.66560000  0.17310000  1.0
  Si0+  Si97  1  0.38950000  0.16560000  0.32690000  1.0
  Si0+  Si98  1  0.11050000  0.83440000  0.82690000  1.0
  Si0+  Si99  1  0.88950000  0.33440000  0.67310000  1.0
  Si0+  Si100  1  0.66560000  0.17310000  0.61050000  1.0
  Si0+  Si101  1  0.16560000  0.32690000  0.38950000  1.0
  Si0+  Si102  1  0.83440000  0.82690000  0.11050000  1.0
  Si0+  Si103  1  0.33440000  0.67310000  0.88950000  1.0
  Si0+  Si104  1  0.57690000  0.08440000  0.13950000  1.0
  Si0+  Si105  1  0.42310000  0.58440000  0.36050000  1.0
  Si0+  Si106  1  0.92310000  0.91560000  0.63950000  1.0
  Si0+  Si107  1  0.07690000  0.41560000  0.86050000  1.0
  Si0+  Si108  1  0.13950000  0.57690000  0.08440000  1.0
  Si0+  Si109  1  0.36050000  0.42310000  0.58440000  1.0
  Si0+  Si110  1  0.63950000  0.92310000  0.91560000  1.0
  Si0+  Si111  1  0.86050000  0.07690000  0.41560000  1.0
  Si0+  Si112  1  0.08440000  0.13950000  0.57690000  1.0
  Si0+  Si113  1  0.58440000  0.36050000  0.42310000  1.0
  Si0+  Si114  1  0.91560000  0.63950000  0.92310000  1.0
  Si0+  Si115  1  0.41560000  0.86050000  0.07690000  1.0
  Si0+  Si116  1  0.92440000  0.07560000  0.57560000  1.0
  Si0+  Si117  1  0.57560000  0.92440000  0.07560000  1.0
  Si0+  Si118  1  0.07560000  0.57560000  0.92440000  1.0
  Si0+  Si119  1  0.42440000  0.42440000  0.42440000  1.0
  Si0+  Si120  1  0.82560000  0.17440000  0.67440000  1.0
  Si0+  Si121  1  0.17440000  0.67440000  0.82560000  1.0
  Si0+  Si122  1  0.67440000  0.82560000  0.17440000  1.0
  Si0+  Si123  1  0.32560000  0.32560000  0.32560000  1.0
