# generated using pymatgen
data_Ba6Ge25
_symmetry_space_group_name_H-M   'P 1'
_cell_length_a   14.55640000
_cell_length_b   14.55640000
_cell_length_c   14.55640000
_cell_angle_alpha   90.00000000
_cell_angle_beta   90.00000000
_cell_angle_gamma   90.00000000
_symmetry_Int_Tables_number   1
_chemical_formula_structural   Ba6Ge25
_chemical_formula_sum   'Ba24 Ge100'
_cell_volume   3084.33785117
_cell_formula_units_Z   4
loop_
 _symmetry_equiv_pos_site_id
 _symmetry_equiv_pos_as_xyz
  1  'x, y, z'
loop_
 _atom_type_symbol
 _atom_type_oxidation_number
  Ba0+  0.0
  Ge0+  0.0
loop_
 _atom_site_type_symbol
 _atom_site_label
 _atom_site_symmetry_multiplicity
 _atom_site_fract_x
 _atom_site_fract_y
 _atom_site_fract_z
 _atom_site_occupancy
  Ba0+  Ba0  1  0.18930000  0.81070000  0.31070000  1.0
  Ba0+  Ba1  1  0.31070000  0.18930000  0.81070000  1.0
  Ba0+  Ba2  1  0.81070000  0.31070000  0.18930000  1.0
  Ba0+  Ba3  1  0.68930000  0.68930000  0.68930000  1.0
  Ba0+  Ba4  1  0.56070000  0.43930000  0.93930000  1.0
  Ba0+  Ba5  1  0.43930000  0.93930000  0.56070000  1.0
  Ba0+  Ba6  1  0.93930000  0.56070000  0.43930000  1.0
  Ba0+  Ba7  1  0.06070000  0.06070000  0.06070000  1.0
  Ba0+  Ba8  1  0.81130000  0.93870000  0.37500000  1.0
  Ba0+  Ba9  1  0.68870000  0.06130000  0.87500000  1.0
  Ba0+  Ba10  1  0.18870000  0.43870000  0.12500000  1.0
  Ba0+  Ba11  1  0.31130000  0.56130000  0.62500000  1.0
  Ba0+  Ba12  1  0.93870000  0.37500000  0.81130000  1.0
  Ba0+  Ba13  1  0.06130000  0.87500000  0.68870000  1.0
  Ba0+  Ba14  1  0.43870000  0.12500000  0.18870000  1.0
  Ba0+  Ba15  1  0.56130000  0.62500000  0.31130000  1.0
  Ba0+  Ba16  1  0.37500000  0.81130000  0.93870000  1.0
  Ba0+  Ba17  1  0.87500000  0.68870000  0.06130000  1.0
  Ba0+  Ba18  1  0.12500000  0.18870000  0.43870000  1.0
  Ba0+  Ba19  1  0.62500000  0.31130000  0.56130000  1.0
  Ba0+  Ba20  1  0.87500000  0.12500000  0.62500000  1.0
  Ba0+  Ba21  1  0.62500000  0.87500000  0.12500000  1.0
  Ba0+  Ba22  1  0.12500000  0.62500000  0.87500000  1.0
  Ba0+  Ba23  1  0.37500000  0.37500000  0.37500000  1.0
  Ge0+  Ge24  1  0.49990000  0.70380000  0.54290000  1.0
  Ge0+  Ge25  1  0.00010000  0.29620000  0.04290000  1.0
  Ge0+  Ge26  1  0.50010000  0.20380000  0.95710000  1.0
  Ge0+  Ge27  1  0.99990000  0.79620000  0.45710000  1.0
  Ge0+  Ge28  1  0.70380000  0.54290000  0.49990000  1.0
  Ge0+  Ge29  1  0.29620000  0.04290000  0.00010000  1.0
  Ge0+  Ge30  1  0.20380000  0.95710000  0.50010000  1.0
  Ge0+  Ge31  1  0.79620000  0.45710000  0.99990000  1.0
  Ge0+  Ge32  1  0.54290000  0.49990000  0.70380000  1.0
  Ge0+  Ge33  1  0.04290000  0.00010000  0.29620000  1.0
  Ge0+  Ge34  1  0.95710000  0.50010000  0.20380000  1.0
  Ge0+  Ge35  1  0.45710000  0.99990000  0.79620000  1.0
  Ge0+  Ge36  1  0.25010000  0.20710000  0.04620000  1.0
  Ge0+  Ge37  1  0.74990000  0.70710000  0.45380000  1.0
  Ge0+  Ge38  1  0.24990000  0.79290000  0.54620000  1.0
  Ge0+  Ge39  1  0.75010000  0.29290000  0.95380000  1.0
  Ge0+  Ge40  1  0.04620000  0.25010000  0.20710000  1.0
  Ge0+  Ge41  1  0.45380000  0.74990000  0.70710000  1.0
  Ge0+  Ge42  1  0.54620000  0.24990000  0.79290000  1.0
  Ge0+  Ge43  1  0.95380000  0.75010000  0.29290000  1.0
  Ge0+  Ge44  1  0.20710000  0.04620000  0.25010000  1.0
  Ge0+  Ge45  1  0.70710000  0.45380000  0.74990000  1.0
  Ge0+  Ge46  1  0.79290000  0.54620000  0.24990000  1.0
  Ge0+  Ge47  1  0.29290000  0.95380000  0.75010000  1.0
  Ge0+  Ge48  1  0.32490000  0.67510000  0.17510000  1.0
  Ge0+  Ge49  1  0.17510000  0.32490000  0.67510000  1.0
  Ge0+  Ge50  1  0.67510000  0.17510000  0.32490000  1.0
  Ge0+  Ge51  1  0.82490000  0.82490000  0.82490000  1.0
  Ge0+  Ge52  1  0.42510000  0.57490000  0.07490000  1.0
  Ge0+  Ge53  1  0.57490000  0.07490000  0.42510000  1.0
  Ge0+  Ge54  1  0.07490000  0.42510000  0.57490000  1.0
  Ge0+  Ge55  1  0.92510000  0.92510000  0.92510000  1.0
  Ge0+  Ge56  1  0.03180000  0.96820000  0.46820000  1.0
  Ge0+  Ge57  1  0.46820000  0.03180000  0.96820000  1.0
  Ge0+  Ge58  1  0.96820000  0.46820000  0.03180000  1.0
  Ge0+  Ge59  1  0.53180000  0.53180000  0.53180000  1.0
  Ge0+  Ge60  1  0.71820000  0.28180000  0.78180000  1.0
  Ge0+  Ge61  1  0.28180000  0.78180000  0.71820000  1.0
  Ge0+  Ge62  1  0.78180000  0.71820000  0.28180000  1.0
  Ge0+  Ge63  1  0.21820000  0.21820000  0.21820000  1.0
  Ge0+  Ge64  1  0.16910000  0.58090000  0.37500000  1.0
  Ge0+  Ge65  1  0.33090000  0.41910000  0.87500000  1.0
  Ge0+  Ge66  1  0.83090000  0.08090000  0.12500000  1.0
  Ge0+  Ge67  1  0.66910000  0.91910000  0.62500000  1.0
  Ge0+  Ge68  1  0.58090000  0.37500000  0.16910000  1.0
  Ge0+  Ge69  1  0.41910000  0.87500000  0.33090000  1.0
  Ge0+  Ge70  1  0.08090000  0.12500000  0.83090000  1.0
  Ge0+  Ge71  1  0.91910000  0.62500000  0.66910000  1.0
  Ge0+  Ge72  1  0.37500000  0.16910000  0.58090000  1.0
  Ge0+  Ge73  1  0.87500000  0.33090000  0.41910000  1.0
  Ge0+  Ge74  1  0.12500000  0.83090000  0.08090000  1.0
  Ge0+  Ge75  1  0.62500000  0.66910000  0.91910000  1.0
  Ge0+  Ge76  1  0.39680000  0.83470000  0.16660000  1.0
  Ge0+  Ge77  1  0.10320000  0.16530000  0.66660000  1.0
  Ge0+  Ge78  1  0.60320000  0.33470000  0.33340000  1.0
  Ge0+  Ge79  1  0.89680000  0.66530000  0.83340000  1.0
  Ge0+  Ge80  1  0.83470000  0.16660000  0.39680000  1.0
  Ge0+  Ge81  1  0.16530000  0.66660000  0.10320000  1.0
  Ge0+  Ge82  1  0.33470000  0.33340000  0.60320000  1.0
  Ge0+  Ge83  1  0.66530000  0.83340000  0.89680000  1.0
  Ge0+  Ge84  1  0.16660000  0.39680000  0.83470000  1.0
  Ge0+  Ge85  1  0.66660000  0.10320000  0.16530000  1.0
  Ge0+  Ge86  1  0.33340000  0.60320000  0.33470000  1.0
  Ge0+  Ge87  1  0.83340000  0.89680000  0.66530000  1.0
  Ge0+  Ge88  1  0.35320000  0.58340000  0.91530000  1.0
  Ge0+  Ge89  1  0.64680000  0.08340000  0.58470000  1.0
  Ge0+  Ge90  1  0.14680000  0.41660000  0.41530000  1.0
  Ge0+  Ge91  1  0.85320000  0.91660000  0.08470000  1.0
  Ge0+  Ge92  1  0.91530000  0.35320000  0.58340000  1.0
  Ge0+  Ge93  1  0.58470000  0.64680000  0.08340000  1.0
  Ge0+  Ge94  1  0.41530000  0.14680000  0.41660000  1.0
  Ge0+  Ge95  1  0.08470000  0.85320000  0.91660000  1.0
  Ge0+  Ge96  1  0.58340000  0.91530000  0.35320000  1.0
  Ge0+  Ge97  1  0.08340000  0.58470000  0.64680000  1.0
  Ge0+  Ge98  1  0.41660000  0.41530000  0.14680000  1.0
  Ge0+  Ge99  1  0.91660000  0.08470000  0.85320000  1.0
  Ge0+  Ge100  1  0.37330000  0.73990000  0.43530000  1.0
  Ge0+  Ge101  1  0.12670000  0.26010000  0.93530000  1.0
  Ge0+  Ge102  1  0.62670000  0.23990000  0.06470000  1.0
  Ge0+  Ge103  1  0.87330000  0.76010000  0.56470000  1.0
  Ge0+  Ge104  1  0.73990000  0.43530000  0.37330000  1.0
  Ge0+  Ge105  1  0.26010000  0.93530000  0.12670000  1.0
  Ge0+  Ge106  1  0.23990000  0.06470000  0.62670000  1.0
  Ge0+  Ge107  1  0.76010000  0.56470000  0.87330000  1.0
  Ge0+  Ge108  1  0.43530000  0.37330000  0.73990000  1.0
  Ge0+  Ge109  1  0.93530000  0.12670000  0.26010000  1.0
  Ge0+  Ge110  1  0.06470000  0.62670000  0.23990000  1.0
  Ge0+  Ge111  1  0.56470000  0.87330000  0.76010000  1.0
  Ge0+  Ge112  1  0.37670000  0.31470000  0.01010000  1.0
  Ge0+  Ge113  1  0.62330000  0.81470000  0.48990000  1.0
  Ge0+  Ge114  1  0.12330000  0.68530000  0.51010000  1.0
  Ge0+  Ge115  1  0.87670000  0.18530000  0.98990000  1.0
  Ge0+  Ge116  1  0.01010000  0.37670000  0.31470000  1.0
  Ge0+  Ge117  1  0.48990000  0.62330000  0.81470000  1.0
  Ge0+  Ge118  1  0.51010000  0.12330000  0.68530000  1.0
  Ge0+  Ge119  1  0.98990000  0.87670000  0.18530000  1.0
  Ge0+  Ge120  1  0.31470000  0.01010000  0.37670000  1.0
  Ge0+  Ge121  1  0.81470000  0.48990000  0.62330000  1.0
  Ge0+  Ge122  1  0.68530000  0.51010000  0.12330000  1.0
  Ge0+  Ge123  1  0.18530000  0.98990000  0.87670000  1.0
