# generated using pymatgen
data_SbTePd
_symmetry_space_group_name_H-M   'P 1'
_cell_length_a   6.53620000
_cell_length_b   6.53620000
_cell_length_c   6.53620000
_cell_angle_alpha   90.00000000
_cell_angle_beta   90.00000000
_cell_angle_gamma   90.00000000
_symmetry_Int_Tables_number   1
_chemical_formula_structural   SbTePd
_chemical_formula_sum   'Sb4 Te4 Pd4'
_cell_volume   279.23895102
_cell_formula_units_Z   4
loop_
 _symmetry_equiv_pos_site_id
 _symmetry_equiv_pos_as_xyz
  1  'x, y, z'
loop_
 _atom_type_symbol
 _atom_type_oxidation_number
  Sb1.5-  -1.5
  Te1.5-  -1.5
  Pd3+  3.0
loop_
 _atom_site_type_symbol
 _atom_site_label
 _atom_site_symmetry_multiplicity
 _atom_site_fract_x
 _atom_site_fract_y
 _atom_site_fract_z
 _atom_site_occupancy
  Sb1.5-  Sb0  1  0.87291000  0.37291000  0.12709000  1.0
  Sb1.5-  Sb1  1  0.37291000  0.12709000  0.87291000  1.0
  Sb1.5-  Sb2  1  0.12709000  0.87291000  0.37291000  1.0
  Sb1.5-  Sb3  1  0.62709000  0.62709000  0.62709000  1.0
  Te1.5-  Te4  1  0.12722000  0.62722000  0.87278000  1.0
  Te1.5-  Te5  1  0.62722000  0.87278000  0.12722000  1.0
  Te1.5-  Te6  1  0.87278000  0.12722000  0.62722000  1.0
  Te1.5-  Te7  1  0.37278000  0.37278000  0.37278000  1.0
  Pd3+  Pd8  1  0.50198000  0.00198000  0.49802000  1.0
  Pd3+  Pd9  1  0.00198000  0.49802000  0.50198000  1.0
  Pd3+  Pd10  1  0.49802000  0.50198000  0.00198000  1.0
  Pd3+  Pd11  1  0.99802000  0.99802000  0.99802000  1.0
