# generated using pymatgen
data_Ca2InN
_symmetry_space_group_name_H-M   'P 1'
_cell_length_a   3.53200000
_cell_length_b   20.20400000
_cell_length_c   4.96900000
_cell_angle_alpha   90.00000000
_cell_angle_beta   90.00000000
_cell_angle_gamma   90.00000000
_symmetry_Int_Tables_number   1
_chemical_formula_structural   Ca2InN
_chemical_formula_sum   'Ca8 In4 N4'
_cell_volume   354.59046363
_cell_formula_units_Z   4
loop_
 _symmetry_equiv_pos_site_id
 _symmetry_equiv_pos_as_xyz
  1  'x, y, z'
loop_
 _atom_type_symbol
 _atom_type_oxidation_number
  Ca2+  2.0
  In-  -1.0
  N3-  -3.0
loop_
 _atom_site_type_symbol
 _atom_site_label
 _atom_site_symmetry_multiplicity
 _atom_site_fract_x
 _atom_site_fract_y
 _atom_site_fract_z
 _atom_site_occupancy
  Ca2+  Ca0  1  0.00000000  0.21876000  0.25000000  1.0
  Ca2+  Ca1  1  0.00000000  0.78124000  0.75000000  1.0
  Ca2+  Ca2  1  0.50000000  0.71876000  0.25000000  1.0
  Ca2+  Ca3  1  0.50000000  0.28124000  0.75000000  1.0
  Ca2+  Ca4  1  0.00000000  0.37994000  0.25000000  1.0
  Ca2+  Ca5  1  0.00000000  0.62006000  0.75000000  1.0
  Ca2+  Ca6  1  0.50000000  0.87994000  0.25000000  1.0
  Ca2+  Ca7  1  0.50000000  0.12006000  0.75000000  1.0
  In-  In8  1  0.00000000  0.03863000  0.25000000  1.0
  In-  In9  1  0.00000000  0.96137000  0.75000000  1.0
  In-  In10  1  0.50000000  0.53863000  0.25000000  1.0
  In-  In11  1  0.50000000  0.46137000  0.75000000  1.0
  N3-  N12  1  0.00000000  0.80094000  0.25000000  1.0
  N3-  N13  1  0.00000000  0.19906000  0.75000000  1.0
  N3-  N14  1  0.50000000  0.30094000  0.25000000  1.0
  N3-  N15  1  0.50000000  0.69906000  0.75000000  1.0
