# generated using pymatgen
data_LaFePO
_symmetry_space_group_name_H-M   'P 1'
_cell_length_a   3.96306000
_cell_length_b   3.96306000
_cell_length_c   8.50870000
_cell_angle_alpha   90.00000000
_cell_angle_beta   90.00000000
_cell_angle_gamma   90.00000000
_symmetry_Int_Tables_number   1
_chemical_formula_structural   LaFePO
_chemical_formula_sum   'La2 Fe2 P2 O2'
_cell_volume   133.63631964
_cell_formula_units_Z   2
loop_
 _symmetry_equiv_pos_site_id
 _symmetry_equiv_pos_as_xyz
  1  'x, y, z'
loop_
 _atom_type_symbol
 _atom_type_oxidation_number
  La3+  3.0
  Fe2+  2.0
  P3-  -3.0
  O2-  -2.0
loop_
 _atom_site_type_symbol
 _atom_site_label
 _atom_site_symmetry_multiplicity
 _atom_site_fract_x
 _atom_site_fract_y
 _atom_site_fract_z
 _atom_site_occupancy
  La3+  La0  1  0.75000000  0.75000000  0.85130000  1.0
  La3+  La1  1  0.25000000  0.25000000  0.14870000  1.0
  Fe2+  Fe2  1  0.75000000  0.25000000  0.50000000  1.0
  Fe2+  Fe3  1  0.25000000  0.75000000  0.50000000  1.0
  P3-  P4  1  0.75000000  0.75000000  0.36520000  1.0
  P3-  P5  1  0.25000000  0.25000000  0.63480000  1.0
  O2-  O6  1  0.75000000  0.25000000  0.00000000  1.0
  O2-  O7  1  0.25000000  0.75000000  0.00000000  1.0
