# generated using pymatgen
data_Rb(FeAs)2
_symmetry_space_group_name_H-M   'P 1'
_cell_length_a   3.87000000
_cell_length_b   3.87000000
_cell_length_c   14.46000000
_cell_angle_alpha   90.00000000
_cell_angle_beta   90.00000000
_cell_angle_gamma   90.00000000
_symmetry_Int_Tables_number   1
_chemical_formula_structural   Rb(FeAs)2
_chemical_formula_sum   'Rb2 Fe4 As4'
_cell_volume   216.56597400
_cell_formula_units_Z   2
loop_
 _symmetry_equiv_pos_site_id
 _symmetry_equiv_pos_as_xyz
  1  'x, y, z'
loop_
 _atom_type_symbol
 _atom_type_oxidation_number
  Rb+  1.0
  Fe2.5+  2.5
  As3-  -3.0
loop_
 _atom_site_type_symbol
 _atom_site_label
 _atom_site_symmetry_multiplicity
 _atom_site_fract_x
 _atom_site_fract_y
 _atom_site_fract_z
 _atom_site_occupancy
  Rb+  Rb0  1  0.00000000  0.00000000  0.00000000  1.0
  Rb+  Rb1  1  0.50000000  0.50000000  0.50000000  1.0
  Fe2.5+  Fe2  1  0.50000000  0.00000000  0.75000000  1.0
  Fe2.5+  Fe3  1  0.00000000  0.50000000  0.75000000  1.0
  Fe2.5+  Fe4  1  0.50000000  0.00000000  0.25000000  1.0
  Fe2.5+  Fe5  1  0.00000000  0.50000000  0.25000000  1.0
  As3-  As6  1  0.00000000  0.00000000  0.65000000  1.0
  As3-  As7  1  0.00000000  0.00000000  0.35000000  1.0
  As3-  As8  1  0.50000000  0.50000000  0.15000000  1.0
  As3-  As9  1  0.50000000  0.50000000  0.85000000  1.0
