# generated using pymatgen
data_SN
_symmetry_space_group_name_H-M   'P 1'
_cell_length_a   4.43100000
_cell_length_b   4.14800000
_cell_length_c   7.38300000
_cell_angle_alpha   77.77000000
_cell_angle_beta   90.00000000
_cell_angle_gamma   90.00000000
_symmetry_Int_Tables_number   1
_chemical_formula_structural   SN
_chemical_formula_sum   'S4 N4'
_cell_volume   132.61832432
_cell_formula_units_Z   4
loop_
 _symmetry_equiv_pos_site_id
 _symmetry_equiv_pos_as_xyz
  1  'x, y, z'
loop_
 _atom_type_symbol
 _atom_type_oxidation_number
  S0+  0.0
  N0+  0.0
loop_
 _atom_site_type_symbol
 _atom_site_label
 _atom_site_symmetry_multiplicity
 _atom_site_fract_x
 _atom_site_fract_y
 _atom_site_fract_z
 _atom_site_occupancy
  S0+  S0  1  0.71270000  0.41530000  0.40570000  1.0
  S0+  S1  1  0.28730000  0.58470000  0.59430000  1.0
  S0+  S2  1  0.78730000  0.91530000  0.90570000  1.0
  S0+  S3  1  0.21270000  0.08470000  0.09430000  1.0
  N0+  N4  1  0.06800000  0.43100000  0.42800000  1.0
  N0+  N5  1  0.93200000  0.56900000  0.57200000  1.0
  N0+  N6  1  0.43200000  0.93100000  0.92800000  1.0
  N0+  N7  1  0.56800000  0.06900000  0.07200000  1.0
