# generated using pymatgen
data_RbCa(FeAs)4
_symmetry_space_group_name_H-M   'P 1'
_cell_length_a   3.87780000
_cell_length_b   3.87780000
_cell_length_c   13.10880000
_cell_angle_alpha   90.00000000
_cell_angle_beta   90.00000000
_cell_angle_gamma   90.00000000
_symmetry_Int_Tables_number   1
_chemical_formula_structural   RbCa(FeAs)4
_chemical_formula_sum   'Rb1 Ca1 Fe4 As4'
_cell_volume   197.12138873
_cell_formula_units_Z   1
loop_
 _symmetry_equiv_pos_site_id
 _symmetry_equiv_pos_as_xyz
  1  'x, y, z'
loop_
 _atom_type_symbol
 _atom_type_oxidation_number
  Rb0+  0.0
  Ca0+  0.0
  Fe0+  0.0
  As0+  0.0
loop_
 _atom_site_type_symbol
 _atom_site_label
 _atom_site_symmetry_multiplicity
 _atom_site_fract_x
 _atom_site_fract_y
 _atom_site_fract_z
 _atom_site_occupancy
  Rb0+  Rb0  1  0.50000000  0.50000000  0.50000000  1.0
  Ca0+  Ca1  1  0.00000000  0.00000000  0.00000000  1.0
  Fe0+  Fe2  1  0.50000000  0.00000000  0.77540000  1.0
  Fe0+  Fe3  1  0.00000000  0.50000000  0.77540000  1.0
  Fe0+  Fe4  1  0.50000000  0.00000000  0.22460000  1.0
  Fe0+  Fe5  1  0.00000000  0.50000000  0.22460000  1.0
  As0+  As6  1  0.00000000  0.00000000  0.66640000  1.0
  As0+  As7  1  0.00000000  0.00000000  0.33360000  1.0
  As0+  As8  1  0.50000000  0.50000000  0.88070000  1.0
  As0+  As9  1  0.50000000  0.50000000  0.11930000  1.0
