# generated using pymatgen
data_Ba2Ti2Fe2As4O
_symmetry_space_group_name_H-M   'P 1'
_cell_length_a   4.02761000
_cell_length_b   4.02761000
_cell_length_c   27.34410000
_cell_angle_alpha   90.00000000
_cell_angle_beta   90.00000000
_cell_angle_gamma   90.00000000
_symmetry_Int_Tables_number   1
_chemical_formula_structural   Ba2Ti2Fe2As4O
_chemical_formula_sum   'Ba4 Ti4 Fe4 As8 O2'
_cell_volume   443.56620955
_cell_formula_units_Z   2
loop_
 _symmetry_equiv_pos_site_id
 _symmetry_equiv_pos_as_xyz
  1  'x, y, z'
loop_
 _atom_type_symbol
 _atom_type_oxidation_number
  Ba0+  0.0
  Ti0+  0.0
  Fe0+  0.0
  As0+  0.0
  O0+  0.0
loop_
 _atom_site_type_symbol
 _atom_site_label
 _atom_site_symmetry_multiplicity
 _atom_site_fract_x
 _atom_site_fract_y
 _atom_site_fract_z
 _atom_site_occupancy
  Ba0+  Ba0  1  0.00000000  0.00000000  0.86793000  1.0
  Ba0+  Ba1  1  0.00000000  0.00000000  0.13207000  1.0
  Ba0+  Ba2  1  0.50000000  0.50000000  0.36793000  1.0
  Ba0+  Ba3  1  0.50000000  0.50000000  0.63207000  1.0
  Ti0+  Ti4  1  0.00000000  0.50000000  0.00000000  1.0
  Ti0+  Ti5  1  0.50000000  0.00000000  0.00000000  1.0
  Ti0+  Ti6  1  0.50000000  0.00000000  0.50000000  1.0
  Ti0+  Ti7  1  0.00000000  0.50000000  0.50000000  1.0
  Fe0+  Fe8  1  0.00000000  0.50000000  0.75000000  1.0
  Fe0+  Fe9  1  0.50000000  0.00000000  0.75000000  1.0
  Fe0+  Fe10  1  0.00000000  0.50000000  0.25000000  1.0
  Fe0+  Fe11  1  0.50000000  0.00000000  0.25000000  1.0
  As0+  As12  1  0.00000000  0.00000000  0.70036000  1.0
  As0+  As13  1  0.00000000  0.00000000  0.29964000  1.0
  As0+  As14  1  0.50000000  0.50000000  0.20036000  1.0
  As0+  As15  1  0.50000000  0.50000000  0.79964000  1.0
  As0+  As16  1  0.50000000  0.50000000  0.93548000  1.0
  As0+  As17  1  0.50000000  0.50000000  0.06452000  1.0
  As0+  As18  1  0.00000000  0.00000000  0.43548000  1.0
  As0+  As19  1  0.00000000  0.00000000  0.56452000  1.0
  O0+  O20  1  0.00000000  0.00000000  0.00000000  1.0
  O0+  O21  1  0.50000000  0.50000000  0.50000000  1.0
