# generated using pymatgen
data_BaFe2Se3
_symmetry_space_group_name_H-M   'P 1'
_cell_length_a   11.97000000
_cell_length_b   5.49760000
_cell_length_c   9.24350000
_cell_angle_alpha   90.00000000
_cell_angle_beta   90.00000000
_cell_angle_gamma   90.00000000
_symmetry_Int_Tables_number   1
_chemical_formula_structural   BaFe2Se3
_chemical_formula_sum   'Ba4 Fe8 Se12'
_cell_volume   608.28027523
_cell_formula_units_Z   4
loop_
 _symmetry_equiv_pos_site_id
 _symmetry_equiv_pos_as_xyz
  1  'x, y, z'
loop_
 _atom_type_symbol
 _atom_type_oxidation_number
  Ba2+  2.0
  Fe2+  2.0
  Se2-  -2.0
loop_
 _atom_site_type_symbol
 _atom_site_label
 _atom_site_symmetry_multiplicity
 _atom_site_fract_x
 _atom_site_fract_y
 _atom_site_fract_z
 _atom_site_occupancy
  Ba2+  Ba0  1  0.68380000  0.25000000  0.98530000  1.0
  Ba2+  Ba1  1  0.18380000  0.25000000  0.51470000  1.0
  Ba2+  Ba2  1  0.31620000  0.75000000  0.01470000  1.0
  Ba2+  Ba3  1  0.81620000  0.75000000  0.48530000  1.0
  Fe2+  Fe4  1  0.98550000  0.99960000  0.14940000  1.0
  Fe2+  Fe5  1  0.48550000  0.50040000  0.35060000  1.0
  Fe2+  Fe6  1  0.01450000  0.49960000  0.85060000  1.0
  Fe2+  Fe7  1  0.51450000  0.00040000  0.64940000  1.0
  Fe2+  Fe8  1  0.01450000  0.00040000  0.85060000  1.0
  Fe2+  Fe9  1  0.51450000  0.49960000  0.64940000  1.0
  Fe2+  Fe10  1  0.98550000  0.50040000  0.14940000  1.0
  Fe2+  Fe11  1  0.48550000  0.99960000  0.35060000  1.0
  Se2-  Se12  1  0.89450000  0.25000000  0.69010000  1.0
  Se2-  Se13  1  0.39450000  0.25000000  0.80990000  1.0
  Se2-  Se14  1  0.10550000  0.75000000  0.30990000  1.0
  Se2-  Se15  1  0.60550000  0.75000000  0.19010000  1.0
  Se2-  Se16  1  0.86580000  0.25000000  0.27570000  1.0
  Se2-  Se17  1  0.36580000  0.25000000  0.22430000  1.0
  Se2-  Se18  1  0.13420000  0.75000000  0.72430000  1.0
  Se2-  Se19  1  0.63420000  0.75000000  0.77570000  1.0
  Se2-  Se20  1  0.12580000  0.25000000  0.00700000  1.0
  Se2-  Se21  1  0.62580000  0.25000000  0.49300000  1.0
  Se2-  Se22  1  0.87420000  0.75000000  0.99300000  1.0
  Se2-  Se23  1  0.37420000  0.75000000  0.50700000  1.0
