# generated using pymatgen
data_LiFeAs
_symmetry_space_group_name_H-M   'P 1'
_cell_length_a   3.79100000
_cell_length_b   3.79100000
_cell_length_c   6.36400000
_cell_angle_alpha   90.00000000
_cell_angle_beta   90.00000000
_cell_angle_gamma   90.00000000
_symmetry_Int_Tables_number   1
_chemical_formula_structural   LiFeAs
_chemical_formula_sum   'Li2 Fe2 As2'
_cell_volume   91.46137788
_cell_formula_units_Z   2
loop_
 _symmetry_equiv_pos_site_id
 _symmetry_equiv_pos_as_xyz
  1  'x, y, z'
loop_
 _atom_type_symbol
 _atom_type_oxidation_number
  Li+  1.0
  Fe2+  2.0
  As3-  -3.0
loop_
 _atom_site_type_symbol
 _atom_site_label
 _atom_site_symmetry_multiplicity
 _atom_site_fract_x
 _atom_site_fract_y
 _atom_site_fract_z
 _atom_site_occupancy
  Li+  Li0  1  0.75000000  0.75000000  0.17000000  1.0
  Li+  Li1  1  0.25000000  0.25000000  0.83000000  1.0
  Fe2+  Fe2  1  0.75000000  0.25000000  0.50000000  1.0
  Fe2+  Fe3  1  0.25000000  0.75000000  0.50000000  1.0
  As3-  As4  1  0.75000000  0.75000000  0.71000000  1.0
  As3-  As5  1  0.25000000  0.25000000  0.29000000  1.0
