# generated using pymatgen
data_Cs(FeAs)2
_symmetry_space_group_name_H-M   'P 1'
_cell_length_a   3.89430000
_cell_length_b   3.89430000
_cell_length_c   15.09970000
_cell_angle_alpha   90.00000000
_cell_angle_beta   90.00000000
_cell_angle_gamma   90.00000000
_symmetry_Int_Tables_number   1
_chemical_formula_structural   Cs(FeAs)2
_chemical_formula_sum   'Cs2 Fe4 As4'
_cell_volume   228.99559493
_cell_formula_units_Z   2
loop_
 _symmetry_equiv_pos_site_id
 _symmetry_equiv_pos_as_xyz
  1  'x, y, z'
loop_
 _atom_type_symbol
 _atom_type_oxidation_number
  Cs+  1.0
  Fe2.5+  2.5
  As3-  -3.0
loop_
 _atom_site_type_symbol
 _atom_site_label
 _atom_site_symmetry_multiplicity
 _atom_site_fract_x
 _atom_site_fract_y
 _atom_site_fract_z
 _atom_site_occupancy
  Cs+  Cs0  1  0.00000000  0.00000000  0.00000000  1.0
  Cs+  Cs1  1  0.50000000  0.50000000  0.50000000  1.0
  Fe2.5+  Fe2  1  0.50000000  0.00000000  0.75000000  1.0
  Fe2.5+  Fe3  1  0.00000000  0.50000000  0.75000000  1.0
  Fe2.5+  Fe4  1  0.50000000  0.00000000  0.25000000  1.0
  Fe2.5+  Fe5  1  0.00000000  0.50000000  0.25000000  1.0
  As3-  As6  1  0.00000000  0.00000000  0.65900000  1.0
  As3-  As7  1  0.00000000  0.00000000  0.34100000  1.0
  As3-  As8  1  0.50000000  0.50000000  0.15900000  1.0
  As3-  As9  1  0.50000000  0.50000000  0.84100000  1.0
