# generated using pymatgen
data_SmFePO
_symmetry_space_group_name_H-M   'P 1'
_cell_length_a   3.87800000
_cell_length_b   3.87800000
_cell_length_c   8.20500000
_cell_angle_alpha   90.00000000
_cell_angle_beta   90.00000000
_cell_angle_gamma   90.00000000
_symmetry_Int_Tables_number   1
_chemical_formula_structural   SmFePO
_chemical_formula_sum   'Sm2 Fe2 P2 O2'
_cell_volume   123.39404322
_cell_formula_units_Z   2
loop_
 _symmetry_equiv_pos_site_id
 _symmetry_equiv_pos_as_xyz
  1  'x, y, z'
loop_
 _atom_type_symbol
 _atom_type_oxidation_number
  Sm3+  3.0
  Fe2+  2.0
  P3-  -3.0
  O2-  -2.0
loop_
 _atom_site_type_symbol
 _atom_site_label
 _atom_site_symmetry_multiplicity
 _atom_site_fract_x
 _atom_site_fract_y
 _atom_site_fract_z
 _atom_site_occupancy
  Sm3+  Sm0  1  0.75000000  0.75000000  0.85180000  1.0
  Sm3+  Sm1  1  0.25000000  0.25000000  0.14820000  1.0
  Fe2+  Fe2  1  0.75000000  0.25000000  0.50000000  1.0
  Fe2+  Fe3  1  0.25000000  0.75000000  0.50000000  1.0
  P3-  P4  1  0.75000000  0.75000000  0.35800000  1.0
  P3-  P5  1  0.25000000  0.25000000  0.64200000  1.0
  O2-  O6  1  0.75000000  0.25000000  0.00000000  1.0
  O2-  O7  1  0.25000000  0.75000000  0.00000000  1.0
