# generated using pymatgen
data_YSi3
_symmetry_space_group_name_H-M   'P 1'
_cell_length_a   7.18350000
_cell_length_b   7.18350000
_cell_length_c   10.47100000
_cell_angle_alpha   90.00000000
_cell_angle_beta   90.00000000
_cell_angle_gamma   90.00000000
_symmetry_Int_Tables_number   1
_chemical_formula_structural   YSi3
_chemical_formula_sum   'Y8 Si24'
_cell_volume   540.33158113
_cell_formula_units_Z   8
loop_
 _symmetry_equiv_pos_site_id
 _symmetry_equiv_pos_as_xyz
  1  'x, y, z'
loop_
 _atom_type_symbol
 _atom_type_oxidation_number
  Y0+  0.0
  Si0+  0.0
loop_
 _atom_site_type_symbol
 _atom_site_label
 _atom_site_symmetry_multiplicity
 _atom_site_fract_x
 _atom_site_fract_y
 _atom_site_fract_z
 _atom_site_occupancy
  Y0+  Y0  1  0.00000000  0.00000000  0.82950000  1.0
  Y0+  Y1  1  0.00000000  0.00000000  0.17050000  1.0
  Y0+  Y2  1  0.50000000  0.50000000  0.32950000  1.0
  Y0+  Y3  1  0.50000000  0.50000000  0.67050000  1.0
  Y0+  Y4  1  0.00000000  0.50000000  0.75000000  1.0
  Y0+  Y5  1  0.50000000  0.00000000  0.75000000  1.0
  Y0+  Y6  1  0.00000000  0.50000000  0.25000000  1.0
  Y0+  Y7  1  0.50000000  0.00000000  0.25000000  1.0
  Si0+  Si8  1  0.00000000  0.32950000  0.00000000  1.0
  Si0+  Si9  1  0.00000000  0.67050000  0.00000000  1.0
  Si0+  Si10  1  0.67050000  0.00000000  0.00000000  1.0
  Si0+  Si11  1  0.32950000  0.00000000  0.00000000  1.0
  Si0+  Si12  1  0.50000000  0.82950000  0.50000000  1.0
  Si0+  Si13  1  0.50000000  0.17050000  0.50000000  1.0
  Si0+  Si14  1  0.17050000  0.50000000  0.50000000  1.0
  Si0+  Si15  1  0.82950000  0.50000000  0.50000000  1.0
  Si0+  Si16  1  0.31410000  0.31410000  0.88830000  1.0
  Si0+  Si17  1  0.68590000  0.68590000  0.88830000  1.0
  Si0+  Si18  1  0.68590000  0.31410000  0.88830000  1.0
  Si0+  Si19  1  0.31410000  0.68590000  0.88830000  1.0
  Si0+  Si20  1  0.68590000  0.68590000  0.11170000  1.0
  Si0+  Si21  1  0.31410000  0.31410000  0.11170000  1.0
  Si0+  Si22  1  0.31410000  0.68590000  0.11170000  1.0
  Si0+  Si23  1  0.68590000  0.31410000  0.11170000  1.0
  Si0+  Si24  1  0.81410000  0.81410000  0.38830000  1.0
  Si0+  Si25  1  0.18590000  0.18590000  0.38830000  1.0
  Si0+  Si26  1  0.18590000  0.81410000  0.38830000  1.0
  Si0+  Si27  1  0.81410000  0.18590000  0.38830000  1.0
  Si0+  Si28  1  0.18590000  0.18590000  0.61170000  1.0
  Si0+  Si29  1  0.81410000  0.81410000  0.61170000  1.0
  Si0+  Si30  1  0.81410000  0.18590000  0.61170000  1.0
  Si0+  Si31  1  0.18590000  0.81410000  0.61170000  1.0
