# generated using pymatgen
data_NpAl2Pd5
_symmetry_space_group_name_H-M   'P 1'
_cell_length_a   4.14800000
_cell_length_b   4.14800000
_cell_length_c   14.71600000
_cell_angle_alpha   90.00000000
_cell_angle_beta   90.00000000
_cell_angle_gamma   90.00000000
_symmetry_Int_Tables_number   1
_chemical_formula_structural   NpAl2Pd5
_chemical_formula_sum   'Np2 Al4 Pd10'
_cell_volume   253.20208326
_cell_formula_units_Z   2
loop_
 _symmetry_equiv_pos_site_id
 _symmetry_equiv_pos_as_xyz
  1  'x, y, z'
loop_
 _atom_type_symbol
 _atom_type_oxidation_number
  Np0+  0.0
  Al0+  0.0
  Pd0+  0.0
loop_
 _atom_site_type_symbol
 _atom_site_label
 _atom_site_symmetry_multiplicity
 _atom_site_fract_x
 _atom_site_fract_y
 _atom_site_fract_z
 _atom_site_occupancy
  Np0+  Np0  1  0.00000000  0.00000000  0.00000000  1.0
  Np0+  Np1  1  0.50000000  0.50000000  0.50000000  1.0
  Al0+  Al2  1  0.00000000  0.00000000  0.74500000  1.0
  Al0+  Al3  1  0.00000000  0.00000000  0.25500000  1.0
  Al0+  Al4  1  0.50000000  0.50000000  0.24500000  1.0
  Al0+  Al5  1  0.50000000  0.50000000  0.75500000  1.0
  Pd0+  Pd6  1  0.00000000  0.00000000  0.50000000  1.0
  Pd0+  Pd7  1  0.50000000  0.50000000  0.00000000  1.0
  Pd0+  Pd8  1  0.50000000  0.00000000  0.85330000  1.0
  Pd0+  Pd9  1  0.00000000  0.50000000  0.85330000  1.0
  Pd0+  Pd10  1  0.50000000  0.00000000  0.14670000  1.0
  Pd0+  Pd11  1  0.00000000  0.50000000  0.14670000  1.0
  Pd0+  Pd12  1  0.00000000  0.50000000  0.35330000  1.0
  Pd0+  Pd13  1  0.50000000  0.00000000  0.35330000  1.0
  Pd0+  Pd14  1  0.00000000  0.50000000  0.64670000  1.0
  Pd0+  Pd15  1  0.50000000  0.00000000  0.64670000  1.0
