# generated using pymatgen
data_U6Fe
_symmetry_space_group_name_H-M   'P 1'
_cell_length_a   10.26250000
_cell_length_b   10.26250000
_cell_length_c   5.24580000
_cell_angle_alpha   90.00000000
_cell_angle_beta   90.00000000
_cell_angle_gamma   90.00000000
_symmetry_Int_Tables_number   1
_chemical_formula_structural   U6Fe
_chemical_formula_sum   'U24 Fe4'
_cell_volume   552.48191841
_cell_formula_units_Z   4
loop_
 _symmetry_equiv_pos_site_id
 _symmetry_equiv_pos_as_xyz
  1  'x, y, z'
loop_
 _atom_type_symbol
 _atom_type_oxidation_number
  U0+  0.0
  Fe0+  0.0
loop_
 _atom_site_type_symbol
 _atom_site_label
 _atom_site_symmetry_multiplicity
 _atom_site_fract_x
 _atom_site_fract_y
 _atom_site_fract_z
 _atom_site_occupancy
  U0+  U0  1  0.90560000  0.40560000  0.50000000  1.0
  U0+  U1  1  0.09440000  0.59440000  0.50000000  1.0
  U0+  U2  1  0.09440000  0.40560000  0.00000000  1.0
  U0+  U3  1  0.90560000  0.59440000  0.00000000  1.0
  U0+  U4  1  0.40560000  0.09440000  0.50000000  1.0
  U0+  U5  1  0.59440000  0.90560000  0.50000000  1.0
  U0+  U6  1  0.40560000  0.90560000  0.00000000  1.0
  U0+  U7  1  0.59440000  0.09440000  0.00000000  1.0
  U0+  U8  1  0.10290000  0.21450000  0.50000000  1.0
  U0+  U9  1  0.89710000  0.78550000  0.50000000  1.0
  U0+  U10  1  0.89710000  0.21450000  0.00000000  1.0
  U0+  U11  1  0.10290000  0.78550000  0.00000000  1.0
  U0+  U12  1  0.21450000  0.89710000  0.50000000  1.0
  U0+  U13  1  0.78550000  0.10290000  0.50000000  1.0
  U0+  U14  1  0.21450000  0.10290000  0.00000000  1.0
  U0+  U15  1  0.78550000  0.89710000  0.00000000  1.0
  U0+  U16  1  0.60290000  0.71450000  0.00000000  1.0
  U0+  U17  1  0.39710000  0.28550000  0.00000000  1.0
  U0+  U18  1  0.39710000  0.71450000  0.50000000  1.0
  U0+  U19  1  0.60290000  0.28550000  0.50000000  1.0
  U0+  U20  1  0.71450000  0.39710000  0.00000000  1.0
  U0+  U21  1  0.28550000  0.60290000  0.00000000  1.0
  U0+  U22  1  0.71450000  0.60290000  0.50000000  1.0
  U0+  U23  1  0.28550000  0.39710000  0.50000000  1.0
  Fe0+  Fe24  1  0.00000000  0.00000000  0.25000000  1.0
  Fe0+  Fe25  1  0.00000000  0.00000000  0.75000000  1.0
  Fe0+  Fe26  1  0.50000000  0.50000000  0.75000000  1.0
  Fe0+  Fe27  1  0.50000000  0.50000000  0.25000000  1.0
