# generated using pymatgen
data_UCoGe
_symmetry_space_group_name_H-M   'P 1'
_cell_length_a   6.84800000
_cell_length_b   4.20700000
_cell_length_c   7.23000000
_cell_angle_alpha   90.00000000
_cell_angle_beta   90.00000000
_cell_angle_gamma   90.00000000
_symmetry_Int_Tables_number   1
_chemical_formula_structural   UCoGe
_chemical_formula_sum   'U4 Co4 Ge4'
_cell_volume   208.29294528
_cell_formula_units_Z   4
loop_
 _symmetry_equiv_pos_site_id
 _symmetry_equiv_pos_as_xyz
  1  'x, y, z'
loop_
 _atom_type_symbol
 _atom_type_oxidation_number
  U0+  0.0
  Co0+  0.0
  Ge0+  0.0
loop_
 _atom_site_type_symbol
 _atom_site_label
 _atom_site_symmetry_multiplicity
 _atom_site_fract_x
 _atom_site_fract_y
 _atom_site_fract_z
 _atom_site_occupancy
  U0+  U0  1  0.51000000  0.25000000  0.79200000  1.0
  U0+  U1  1  0.01000000  0.25000000  0.70800000  1.0
  U0+  U2  1  0.49000000  0.75000000  0.20800000  1.0
  U0+  U3  1  0.99000000  0.75000000  0.29200000  1.0
  Co0+  Co4  1  0.78900000  0.25000000  0.08300000  1.0
  Co0+  Co5  1  0.28900000  0.25000000  0.41700000  1.0
  Co0+  Co6  1  0.21100000  0.75000000  0.91700000  1.0
  Co0+  Co7  1  0.71100000  0.75000000  0.58300000  1.0
  Ge0+  Ge8  1  0.69700000  0.25000000  0.41300000  1.0
  Ge0+  Ge9  1  0.19700000  0.25000000  0.08700000  1.0
  Ge0+  Ge10  1  0.30300000  0.75000000  0.58700000  1.0
  Ge0+  Ge11  1  0.80300000  0.75000000  0.91300000  1.0
