# generated using pymatgen
data_La2Sn5Rh3
_symmetry_space_group_name_H-M   'P 1'
_cell_length_a   10.76400000
_cell_length_b   12.91200000
_cell_length_c   6.36500000
_cell_angle_alpha   90.00000000
_cell_angle_beta   90.00000000
_cell_angle_gamma   90.00000000
_symmetry_Int_Tables_number   1
_chemical_formula_structural   La2Sn5Rh3
_chemical_formula_sum   'La8 Sn20 Rh12'
_cell_volume   884.63804832
_cell_formula_units_Z   4
loop_
 _symmetry_equiv_pos_site_id
 _symmetry_equiv_pos_as_xyz
  1  'x, y, z'
loop_
 _atom_type_symbol
 _atom_type_oxidation_number
  La0+  0.0
  Sn0+  0.0
  Rh0+  0.0
loop_
 _atom_site_type_symbol
 _atom_site_label
 _atom_site_symmetry_multiplicity
 _atom_site_fract_x
 _atom_site_fract_y
 _atom_site_fract_z
 _atom_site_occupancy
  La0+  La0  1  0.72930000  0.35700000  0.50000000  1.0
  La0+  La1  1  0.27070000  0.64300000  0.50000000  1.0
  La0+  La2  1  0.27070000  0.35700000  0.00000000  1.0
  La0+  La3  1  0.72930000  0.64300000  0.00000000  1.0
  La0+  La4  1  0.22930000  0.85700000  0.00000000  1.0
  La0+  La5  1  0.77070000  0.14300000  0.00000000  1.0
  La0+  La6  1  0.77070000  0.85700000  0.50000000  1.0
  La0+  La7  1  0.22930000  0.14300000  0.50000000  1.0
  Sn0+  Sn8  1  0.00000000  0.00000000  0.75000000  1.0
  Sn0+  Sn9  1  0.00000000  0.00000000  0.25000000  1.0
  Sn0+  Sn10  1  0.50000000  0.50000000  0.25000000  1.0
  Sn0+  Sn11  1  0.50000000  0.50000000  0.75000000  1.0
  Sn0+  Sn12  1  0.00000000  0.27850000  0.75000000  1.0
  Sn0+  Sn13  1  0.00000000  0.72150000  0.75000000  1.0
  Sn0+  Sn14  1  0.00000000  0.72150000  0.25000000  1.0
  Sn0+  Sn15  1  0.00000000  0.27850000  0.25000000  1.0
  Sn0+  Sn16  1  0.50000000  0.77850000  0.25000000  1.0
  Sn0+  Sn17  1  0.50000000  0.22150000  0.25000000  1.0
  Sn0+  Sn18  1  0.50000000  0.22150000  0.75000000  1.0
  Sn0+  Sn19  1  0.50000000  0.77850000  0.75000000  1.0
  Sn0+  Sn20  1  0.66810000  0.08770000  0.50000000  1.0
  Sn0+  Sn21  1  0.33190000  0.91230000  0.50000000  1.0
  Sn0+  Sn22  1  0.33190000  0.08770000  0.00000000  1.0
  Sn0+  Sn23  1  0.66810000  0.91230000  0.00000000  1.0
  Sn0+  Sn24  1  0.16810000  0.58770000  0.00000000  1.0
  Sn0+  Sn25  1  0.83190000  0.41230000  0.00000000  1.0
  Sn0+  Sn26  1  0.83190000  0.58770000  0.50000000  1.0
  Sn0+  Sn27  1  0.16810000  0.41230000  0.50000000  1.0
  Rh0+  Rh28  1  0.50000000  0.00000000  0.75000000  1.0
  Rh0+  Rh29  1  0.50000000  0.00000000  0.25000000  1.0
  Rh0+  Rh30  1  0.00000000  0.50000000  0.25000000  1.0
  Rh0+  Rh31  1  0.00000000  0.50000000  0.75000000  1.0
  Rh0+  Rh32  1  0.89640000  0.14110000  0.50000000  1.0
  Rh0+  Rh33  1  0.10360000  0.85890000  0.50000000  1.0
  Rh0+  Rh34  1  0.10360000  0.14110000  0.00000000  1.0
  Rh0+  Rh35  1  0.89640000  0.85890000  0.00000000  1.0
  Rh0+  Rh36  1  0.39640000  0.64110000  0.00000000  1.0
  Rh0+  Rh37  1  0.60360000  0.35890000  0.00000000  1.0
  Rh0+  Rh38  1  0.60360000  0.64110000  0.50000000  1.0
  Rh0+  Rh39  1  0.39640000  0.35890000  0.50000000  1.0
