# generated using pymatgen
data_CeIn5Rh
_symmetry_space_group_name_H-M   'P 1'
_cell_length_a   4.57180000
_cell_length_b   4.57180000
_cell_length_c   7.40900000
_cell_angle_alpha   90.00000000
_cell_angle_beta   90.00000000
_cell_angle_gamma   90.00000000
_symmetry_Int_Tables_number   1
_chemical_formula_structural   CeIn5Rh
_chemical_formula_sum   'Ce1 In5 Rh1'
_cell_volume   154.85814097
_cell_formula_units_Z   1
loop_
 _symmetry_equiv_pos_site_id
 _symmetry_equiv_pos_as_xyz
  1  'x, y, z'
loop_
 _atom_type_symbol
 _atom_type_oxidation_number
  Ce0+  0.0
  In0+  0.0
  Rh0+  0.0
loop_
 _atom_site_type_symbol
 _atom_site_label
 _atom_site_symmetry_multiplicity
 _atom_site_fract_x
 _atom_site_fract_y
 _atom_site_fract_z
 _atom_site_occupancy
  Ce0+  Ce0  1  0.00000000  0.00000000  0.00000000  1.0
  In0+  In1  1  0.50000000  0.50000000  0.00000000  1.0
  In0+  In2  1  0.50000000  0.00000000  0.69510000  1.0
  In0+  In3  1  0.00000000  0.50000000  0.69510000  1.0
  In0+  In4  1  0.50000000  0.00000000  0.30490000  1.0
  In0+  In5  1  0.00000000  0.50000000  0.30490000  1.0
  Rh0+  Rh6  1  0.00000000  0.00000000  0.50000000  1.0
