# generated using pymatgen
data_Lu2Si5Ir3
_symmetry_space_group_name_H-M   'P 1'
_cell_length_a   9.91457000
_cell_length_b   11.28665000
_cell_length_c   5.72191000
_cell_angle_alpha   90.00000000
_cell_angle_beta   90.00000000
_cell_angle_gamma   90.00000000
_symmetry_Int_Tables_number   1
_chemical_formula_structural   Lu2Si5Ir3
_chemical_formula_sum   'Lu8 Si20 Ir12'
_cell_volume   640.29478348
_cell_formula_units_Z   4
loop_
 _symmetry_equiv_pos_site_id
 _symmetry_equiv_pos_as_xyz
  1  'x, y, z'
loop_
 _atom_type_symbol
 _atom_type_oxidation_number
  Lu0+  0.0
  Si0+  0.0
  Ir0+  0.0
loop_
 _atom_site_type_symbol
 _atom_site_label
 _atom_site_symmetry_multiplicity
 _atom_site_fract_x
 _atom_site_fract_y
 _atom_site_fract_z
 _atom_site_occupancy
  Lu0+  Lu0  1  0.73268000  0.37011000  0.50000000  1.0
  Lu0+  Lu1  1  0.26732000  0.62989000  0.50000000  1.0
  Lu0+  Lu2  1  0.26732000  0.37011000  0.00000000  1.0
  Lu0+  Lu3  1  0.73268000  0.62989000  0.00000000  1.0
  Lu0+  Lu4  1  0.23268000  0.87011000  0.00000000  1.0
  Lu0+  Lu5  1  0.76732000  0.12989000  0.00000000  1.0
  Lu0+  Lu6  1  0.76732000  0.87011000  0.50000000  1.0
  Lu0+  Lu7  1  0.23268000  0.12989000  0.50000000  1.0
  Si0+  Si8  1  0.00000000  0.00000000  0.75000000  1.0
  Si0+  Si9  1  0.00000000  0.00000000  0.25000000  1.0
  Si0+  Si10  1  0.50000000  0.50000000  0.25000000  1.0
  Si0+  Si11  1  0.50000000  0.50000000  0.75000000  1.0
  Si0+  Si12  1  0.00000000  0.27396000  0.75000000  1.0
  Si0+  Si13  1  0.00000000  0.72604000  0.75000000  1.0
  Si0+  Si14  1  0.00000000  0.72604000  0.25000000  1.0
  Si0+  Si15  1  0.00000000  0.27396000  0.25000000  1.0
  Si0+  Si16  1  0.50000000  0.77396000  0.25000000  1.0
  Si0+  Si17  1  0.50000000  0.22604000  0.25000000  1.0
  Si0+  Si18  1  0.50000000  0.22604000  0.75000000  1.0
  Si0+  Si19  1  0.50000000  0.77396000  0.75000000  1.0
  Si0+  Si20  1  0.64270000  0.09697000  0.50000000  1.0
  Si0+  Si21  1  0.35730000  0.90303000  0.50000000  1.0
  Si0+  Si22  1  0.35730000  0.09697000  0.00000000  1.0
  Si0+  Si23  1  0.64270000  0.90303000  0.00000000  1.0
  Si0+  Si24  1  0.14270000  0.59697000  0.00000000  1.0
  Si0+  Si25  1  0.85730000  0.40303000  0.00000000  1.0
  Si0+  Si26  1  0.85730000  0.59697000  0.50000000  1.0
  Si0+  Si27  1  0.14270000  0.40303000  0.50000000  1.0
  Ir0+  Ir28  1  0.89387000  0.13415000  0.50000000  1.0
  Ir0+  Ir29  1  0.10613000  0.86585000  0.50000000  1.0
  Ir0+  Ir30  1  0.10613000  0.13415000  0.00000000  1.0
  Ir0+  Ir31  1  0.89387000  0.86585000  0.00000000  1.0
  Ir0+  Ir32  1  0.39387000  0.63415000  0.00000000  1.0
  Ir0+  Ir33  1  0.60613000  0.36585000  0.00000000  1.0
  Ir0+  Ir34  1  0.60613000  0.63415000  0.50000000  1.0
  Ir0+  Ir35  1  0.39387000  0.36585000  0.50000000  1.0
  Ir0+  Ir36  1  0.50000000  0.00000000  0.75000000  1.0
  Ir0+  Ir37  1  0.50000000  0.00000000  0.25000000  1.0
  Ir0+  Ir38  1  0.00000000  0.50000000  0.25000000  1.0
  Ir0+  Ir39  1  0.00000000  0.50000000  0.75000000  1.0
