# generated using pymatgen
data_La3(SiNi)4
_symmetry_space_group_name_H-M   'P 1'
_cell_length_a   4.13080000
_cell_length_b   4.17600000
_cell_length_c   23.57800000
_cell_angle_alpha   90.00000000
_cell_angle_beta   90.00000000
_cell_angle_gamma   90.00000000
_symmetry_Int_Tables_number   1
_chemical_formula_structural   La3(SiNi)4
_chemical_formula_sum   'La6 Si8 Ni8'
_cell_volume   406.72570602
_cell_formula_units_Z   2
loop_
 _symmetry_equiv_pos_site_id
 _symmetry_equiv_pos_as_xyz
  1  'x, y, z'
loop_
 _atom_type_symbol
 _atom_type_oxidation_number
  La0+  0.0
  Si0+  0.0
  Ni0+  0.0
loop_
 _atom_site_type_symbol
 _atom_site_label
 _atom_site_symmetry_multiplicity
 _atom_site_fract_x
 _atom_site_fract_y
 _atom_site_fract_z
 _atom_site_occupancy
  La0+  La0  1  0.00000000  0.00000000  0.00000000  1.0
  La0+  La1  1  0.50000000  0.50000000  0.50000000  1.0
  La0+  La2  1  0.50000000  0.00000000  0.64920000  1.0
  La0+  La3  1  0.50000000  0.00000000  0.35080000  1.0
  La0+  La4  1  0.00000000  0.50000000  0.14920000  1.0
  La0+  La5  1  0.00000000  0.50000000  0.85080000  1.0
  Si0+  Si6  1  0.50000000  0.00000000  0.80100000  1.0
  Si0+  Si7  1  0.50000000  0.00000000  0.19900000  1.0
  Si0+  Si8  1  0.00000000  0.50000000  0.30100000  1.0
  Si0+  Si9  1  0.00000000  0.50000000  0.69900000  1.0
  Si0+  Si10  1  0.00000000  0.00000000  0.55300000  1.0
  Si0+  Si11  1  0.00000000  0.00000000  0.44700000  1.0
  Si0+  Si12  1  0.50000000  0.50000000  0.05300000  1.0
  Si0+  Si13  1  0.50000000  0.50000000  0.94700000  1.0
  Ni0+  Ni14  1  0.50000000  0.00000000  0.90040000  1.0
  Ni0+  Ni15  1  0.50000000  0.00000000  0.09960000  1.0
  Ni0+  Ni16  1  0.00000000  0.50000000  0.40040000  1.0
  Ni0+  Ni17  1  0.00000000  0.50000000  0.59960000  1.0
  Ni0+  Ni18  1  0.00000000  0.00000000  0.75150000  1.0
  Ni0+  Ni19  1  0.00000000  0.00000000  0.24850000  1.0
  Ni0+  Ni20  1  0.50000000  0.50000000  0.25150000  1.0
  Ni0+  Ni21  1  0.50000000  0.50000000  0.74850000  1.0
