# generated using pymatgen
data_La3(SiPd)4
_symmetry_space_group_name_H-M   'P 1'
_cell_length_a   4.22540000
_cell_length_b   4.28710000
_cell_length_c   24.55100000
_cell_angle_alpha   90.00000000
_cell_angle_beta   90.00000000
_cell_angle_gamma   90.00000000
_symmetry_Int_Tables_number   1
_chemical_formula_structural   La3(SiPd)4
_chemical_formula_sum   'La6 Si8 Pd8'
_cell_volume   444.73430266
_cell_formula_units_Z   2
loop_
 _symmetry_equiv_pos_site_id
 _symmetry_equiv_pos_as_xyz
  1  'x, y, z'
loop_
 _atom_type_symbol
 _atom_type_oxidation_number
  La0+  0.0
  Si0+  0.0
  Pd0+  0.0
loop_
 _atom_site_type_symbol
 _atom_site_label
 _atom_site_symmetry_multiplicity
 _atom_site_fract_x
 _atom_site_fract_y
 _atom_site_fract_z
 _atom_site_occupancy
  La0+  La0  1  0.00000000  0.00000000  0.00000000  1.0
  La0+  La1  1  0.50000000  0.50000000  0.50000000  1.0
  La0+  La2  1  0.50000000  0.00000000  0.64650000  1.0
  La0+  La3  1  0.50000000  0.00000000  0.35350000  1.0
  La0+  La4  1  0.00000000  0.50000000  0.14650000  1.0
  La0+  La5  1  0.00000000  0.50000000  0.85350000  1.0
  Si0+  Si6  1  0.50000000  0.00000000  0.80100000  1.0
  Si0+  Si7  1  0.50000000  0.00000000  0.19900000  1.0
  Si0+  Si8  1  0.00000000  0.50000000  0.30100000  1.0
  Si0+  Si9  1  0.00000000  0.50000000  0.69900000  1.0
  Si0+  Si10  1  0.00000000  0.00000000  0.54400000  1.0
  Si0+  Si11  1  0.00000000  0.00000000  0.45600000  1.0
  Si0+  Si12  1  0.50000000  0.50000000  0.04400000  1.0
  Si0+  Si13  1  0.50000000  0.50000000  0.95600000  1.0
  Pd0+  Pd14  1  0.50000000  0.00000000  0.90310000  1.0
  Pd0+  Pd15  1  0.50000000  0.00000000  0.09690000  1.0
  Pd0+  Pd16  1  0.00000000  0.50000000  0.40310000  1.0
  Pd0+  Pd17  1  0.00000000  0.50000000  0.59690000  1.0
  Pd0+  Pd18  1  0.00000000  0.00000000  0.75270000  1.0
  Pd0+  Pd19  1  0.00000000  0.00000000  0.24730000  1.0
  Pd0+  Pd20  1  0.50000000  0.50000000  0.25270000  1.0
  Pd0+  Pd21  1  0.50000000  0.50000000  0.74730000  1.0
