# generated using pymatgen
data_CeBiPd
_symmetry_space_group_name_H-M   'P 1'
_cell_length_a   6.81800000
_cell_length_b   6.81800000
_cell_length_c   6.81800000
_cell_angle_alpha   90.00000000
_cell_angle_beta   90.00000000
_cell_angle_gamma   90.00000000
_symmetry_Int_Tables_number   1
_chemical_formula_structural   CeBiPd
_chemical_formula_sum   'Ce4 Bi4 Pd4'
_cell_volume   316.93557543
_cell_formula_units_Z   4
loop_
 _symmetry_equiv_pos_site_id
 _symmetry_equiv_pos_as_xyz
  1  'x, y, z'
loop_
 _atom_type_symbol
 _atom_type_oxidation_number
  Ce0+  0.0
  Bi0+  0.0
  Pd0+  0.0
loop_
 _atom_site_type_symbol
 _atom_site_label
 _atom_site_symmetry_multiplicity
 _atom_site_fract_x
 _atom_site_fract_y
 _atom_site_fract_z
 _atom_site_occupancy
  Ce0+  Ce0  1  0.50000000  0.50000000  0.50000000  1.0
  Ce0+  Ce1  1  0.50000000  0.00000000  0.00000000  1.0
  Ce0+  Ce2  1  0.00000000  0.50000000  0.00000000  1.0
  Ce0+  Ce3  1  0.00000000  0.00000000  0.50000000  1.0
  Bi0+  Bi4  1  0.00000000  0.00000000  0.00000000  1.0
  Bi0+  Bi5  1  0.00000000  0.50000000  0.50000000  1.0
  Bi0+  Bi6  1  0.50000000  0.00000000  0.50000000  1.0
  Bi0+  Bi7  1  0.50000000  0.50000000  0.00000000  1.0
  Pd0+  Pd8  1  0.75000000  0.75000000  0.25000000  1.0
  Pd0+  Pd9  1  0.75000000  0.25000000  0.75000000  1.0
  Pd0+  Pd10  1  0.25000000  0.75000000  0.75000000  1.0
  Pd0+  Pd11  1  0.25000000  0.25000000  0.25000000  1.0
