# generated using pymatgen
data_TmNi2B2C
_symmetry_space_group_name_H-M   'P 1'
_cell_length_a   3.48570000
_cell_length_b   3.48570000
_cell_length_c   10.56090000
_cell_angle_alpha   90.00000000
_cell_angle_beta   90.00000000
_cell_angle_gamma   90.00000000
_symmetry_Int_Tables_number   1
_chemical_formula_structural   TmNi2B2C
_chemical_formula_sum   'Tm2 Ni4 B4 C2'
_cell_volume   128.31603851
_cell_formula_units_Z   2
loop_
 _symmetry_equiv_pos_site_id
 _symmetry_equiv_pos_as_xyz
  1  'x, y, z'
loop_
 _atom_type_symbol
 _atom_type_oxidation_number
  Tm0+  0.0
  Ni0+  0.0
  B0+  0.0
  C0+  0.0
loop_
 _atom_site_type_symbol
 _atom_site_label
 _atom_site_symmetry_multiplicity
 _atom_site_fract_x
 _atom_site_fract_y
 _atom_site_fract_z
 _atom_site_occupancy
  Tm0+  Tm0  1  0.00000000  0.00000000  0.00000000  1.0
  Tm0+  Tm1  1  0.50000000  0.50000000  0.50000000  1.0
  Ni0+  Ni2  1  0.00000000  0.50000000  0.75000000  1.0
  Ni0+  Ni3  1  0.50000000  0.00000000  0.75000000  1.0
  Ni0+  Ni4  1  0.00000000  0.50000000  0.25000000  1.0
  Ni0+  Ni5  1  0.50000000  0.00000000  0.25000000  1.0
  B0+  B6  1  0.00000000  0.00000000  0.64810000  1.0
  B0+  B7  1  0.00000000  0.00000000  0.35190000  1.0
  B0+  B8  1  0.50000000  0.50000000  0.14810000  1.0
  B0+  B9  1  0.50000000  0.50000000  0.85190000  1.0
  C0+  C10  1  0.50000000  0.50000000  0.00000000  1.0
  C0+  C11  1  0.00000000  0.00000000  0.50000000  1.0
