# generated using pymatgen
data_YbAlB4
_symmetry_space_group_name_H-M   'P 1'
_cell_length_a   7.30800000
_cell_length_b   9.31500000
_cell_length_c   3.49800000
_cell_angle_alpha   90.00000000
_cell_angle_beta   90.00000000
_cell_angle_gamma   90.00000000
_symmetry_Int_Tables_number   1
_chemical_formula_structural   YbAlB4
_chemical_formula_sum   'Yb4 Al4 B16'
_cell_volume   238.12292196
_cell_formula_units_Z   4
loop_
 _symmetry_equiv_pos_site_id
 _symmetry_equiv_pos_as_xyz
  1  'x, y, z'
loop_
 _atom_type_symbol
 _atom_type_oxidation_number
  Yb3+  3.0
  Al3+  3.0
  B1.5-  -1.5
loop_
 _atom_site_type_symbol
 _atom_site_label
 _atom_site_symmetry_multiplicity
 _atom_site_fract_x
 _atom_site_fract_y
 _atom_site_fract_z
 _atom_site_occupancy
  Yb3+  Yb0  1  0.00000000  0.69941000  0.00000000  1.0
  Yb3+  Yb1  1  0.00000000  0.30059000  0.00000000  1.0
  Yb3+  Yb2  1  0.50000000  0.19941000  0.00000000  1.0
  Yb3+  Yb3  1  0.50000000  0.80059000  0.00000000  1.0
  Al3+  Al4  1  0.18160000  0.00000000  0.00000000  1.0
  Al3+  Al5  1  0.81840000  0.00000000  0.00000000  1.0
  Al3+  Al6  1  0.68160000  0.50000000  0.00000000  1.0
  Al3+  Al7  1  0.31840000  0.50000000  0.00000000  1.0
  B1.5-  B8  1  0.22320000  0.83910000  0.50000000  1.0
  B1.5-  B9  1  0.77680000  0.16090000  0.50000000  1.0
  B1.5-  B10  1  0.22320000  0.16090000  0.50000000  1.0
  B1.5-  B11  1  0.77680000  0.83910000  0.50000000  1.0
  B1.5-  B12  1  0.72320000  0.33910000  0.50000000  1.0
  B1.5-  B13  1  0.27680000  0.66090000  0.50000000  1.0
  B1.5-  B14  1  0.72320000  0.66090000  0.50000000  1.0
  B1.5-  B15  1  0.27680000  0.33910000  0.50000000  1.0
  B1.5-  B16  1  0.12400000  0.50000000  0.50000000  1.0
  B1.5-  B17  1  0.87600000  0.50000000  0.50000000  1.0
  B1.5-  B18  1  0.62400000  0.00000000  0.50000000  1.0
  B1.5-  B19  1  0.37600000  0.00000000  0.50000000  1.0
  B1.5-  B20  1  0.00000000  0.90800000  0.50000000  1.0
  B1.5-  B21  1  0.00000000  0.09200000  0.50000000  1.0
  B1.5-  B22  1  0.50000000  0.40800000  0.50000000  1.0
  B1.5-  B23  1  0.50000000  0.59200000  0.50000000  1.0
