# generated using pymatgen
data_La(Sb3Os)4
_symmetry_space_group_name_H-M   'P 1'
_cell_length_a   9.30550000
_cell_length_b   9.30550000
_cell_length_c   9.30550000
_cell_angle_alpha   90.00000000
_cell_angle_beta   90.00000000
_cell_angle_gamma   90.00000000
_symmetry_Int_Tables_number   1
_chemical_formula_structural   La(Sb3Os)4
_chemical_formula_sum   'La2 Sb24 Os8'
_cell_volume   805.78492914
_cell_formula_units_Z   2
loop_
 _symmetry_equiv_pos_site_id
 _symmetry_equiv_pos_as_xyz
  1  'x, y, z'
loop_
 _atom_type_symbol
 _atom_type_oxidation_number
  La0+  0.0
  Sb0+  0.0
  Os0+  0.0
loop_
 _atom_site_type_symbol
 _atom_site_label
 _atom_site_symmetry_multiplicity
 _atom_site_fract_x
 _atom_site_fract_y
 _atom_site_fract_z
 _atom_site_occupancy
  La0+  La0  1  0.00000000  0.00000000  0.00000000  1.0
  La0+  La1  1  0.50000000  0.50000000  0.50000000  1.0
  Sb0+  Sb2  1  0.84357000  0.00000000  0.34090000  1.0
  Sb0+  Sb3  1  0.15643000  0.00000000  0.65910000  1.0
  Sb0+  Sb4  1  0.15643000  0.00000000  0.34090000  1.0
  Sb0+  Sb5  1  0.84357000  0.00000000  0.65910000  1.0
  Sb0+  Sb6  1  0.34090000  0.84357000  0.00000000  1.0
  Sb0+  Sb7  1  0.65910000  0.15643000  0.00000000  1.0
  Sb0+  Sb8  1  0.34090000  0.15643000  0.00000000  1.0
  Sb0+  Sb9  1  0.65910000  0.84357000  0.00000000  1.0
  Sb0+  Sb10  1  0.00000000  0.34090000  0.84357000  1.0
  Sb0+  Sb11  1  0.00000000  0.65910000  0.15643000  1.0
  Sb0+  Sb12  1  0.00000000  0.34090000  0.15643000  1.0
  Sb0+  Sb13  1  0.00000000  0.65910000  0.84357000  1.0
  Sb0+  Sb14  1  0.34357000  0.50000000  0.84090000  1.0
  Sb0+  Sb15  1  0.65643000  0.50000000  0.15910000  1.0
  Sb0+  Sb16  1  0.65643000  0.50000000  0.84090000  1.0
  Sb0+  Sb17  1  0.34357000  0.50000000  0.15910000  1.0
  Sb0+  Sb18  1  0.84090000  0.34357000  0.50000000  1.0
  Sb0+  Sb19  1  0.15910000  0.65643000  0.50000000  1.0
  Sb0+  Sb20  1  0.84090000  0.65643000  0.50000000  1.0
  Sb0+  Sb21  1  0.15910000  0.34357000  0.50000000  1.0
  Sb0+  Sb22  1  0.50000000  0.84090000  0.34357000  1.0
  Sb0+  Sb23  1  0.50000000  0.15910000  0.65643000  1.0
  Sb0+  Sb24  1  0.50000000  0.84090000  0.65643000  1.0
  Sb0+  Sb25  1  0.50000000  0.15910000  0.34357000  1.0
  Os0+  Os26  1  0.75000000  0.25000000  0.25000000  1.0
  Os0+  Os27  1  0.25000000  0.25000000  0.75000000  1.0
  Os0+  Os28  1  0.25000000  0.75000000  0.25000000  1.0
  Os0+  Os29  1  0.75000000  0.75000000  0.75000000  1.0
  Os0+  Os30  1  0.25000000  0.75000000  0.75000000  1.0
  Os0+  Os31  1  0.75000000  0.75000000  0.25000000  1.0
  Os0+  Os32  1  0.75000000  0.25000000  0.75000000  1.0
  Os0+  Os33  1  0.25000000  0.25000000  0.25000000  1.0
