# generated using pymatgen
data_La2NiGe3
_symmetry_space_group_name_H-M   'P 1'
_cell_length_a   8.38450000
_cell_length_b   8.38450000
_cell_length_c   8.68070000
_cell_angle_alpha   90.00000000
_cell_angle_beta   90.00000000
_cell_angle_gamma   120.00000000
_symmetry_Int_Tables_number   1
_chemical_formula_structural   La2NiGe3
_chemical_formula_sum   'La8 Ni4 Ge12'
_cell_volume   528.49358165
_cell_formula_units_Z   4
loop_
 _symmetry_equiv_pos_site_id
 _symmetry_equiv_pos_as_xyz
  1  'x, y, z'
loop_
 _atom_type_symbol
 _atom_type_oxidation_number
  La0+  0.0
  Ni0+  0.0
  Ge0+  0.0
loop_
 _atom_site_type_symbol
 _atom_site_label
 _atom_site_symmetry_multiplicity
 _atom_site_fract_x
 _atom_site_fract_y
 _atom_site_fract_z
 _atom_site_occupancy
  La0+  La0  1  0.00000000  0.00000000  0.75000000  1.0
  La0+  La1  1  0.00000000  0.00000000  0.25000000  1.0
  La0+  La2  1  0.99687000  0.50175000  0.75000000  1.0
  La0+  La3  1  0.49825000  0.49512000  0.75000000  1.0
  La0+  La4  1  0.50488000  0.00313000  0.75000000  1.0
  La0+  La5  1  0.50175000  0.99687000  0.25000000  1.0
  La0+  La6  1  0.49512000  0.49825000  0.25000000  1.0
  La0+  La7  1  0.00313000  0.50488000  0.25000000  1.0
  Ni0+  Ni8  1  0.66666667  0.33333333  0.98139000  1.0
  Ni0+  Ni9  1  0.66666667  0.33333333  0.51861000  1.0
  Ni0+  Ni10  1  0.33333333  0.66666667  0.48139000  1.0
  Ni0+  Ni11  1  0.33333333  0.66666667  0.01861000  1.0
  Ge0+  Ge12  1  0.83610000  0.16695000  0.99857000  1.0
  Ge0+  Ge13  1  0.83305000  0.66915000  0.99857000  1.0
  Ge0+  Ge14  1  0.33085000  0.16390000  0.99857000  1.0
  Ge0+  Ge15  1  0.83610000  0.16695000  0.50143000  1.0
  Ge0+  Ge16  1  0.83305000  0.66915000  0.50143000  1.0
  Ge0+  Ge17  1  0.33085000  0.16390000  0.50143000  1.0
  Ge0+  Ge18  1  0.16695000  0.83610000  0.49857000  1.0
  Ge0+  Ge19  1  0.66915000  0.83305000  0.49857000  1.0
  Ge0+  Ge20  1  0.16390000  0.33085000  0.49857000  1.0
  Ge0+  Ge21  1  0.16695000  0.83610000  0.00143000  1.0
  Ge0+  Ge22  1  0.66915000  0.83305000  0.00143000  1.0
  Ge0+  Ge23  1  0.16390000  0.33085000  0.00143000  1.0
