# generated using pymatgen
data_CeIn7Pt2
_symmetry_space_group_name_H-M   'P 1'
_cell_length_a   4.59900000
_cell_length_b   4.59900000
_cell_length_c   21.58000000
_cell_angle_alpha   90.00000000
_cell_angle_beta   90.00000000
_cell_angle_gamma   90.00000000
_symmetry_Int_Tables_number   1
_chemical_formula_structural   CeIn7Pt2
_chemical_formula_sum   'Ce2 In14 Pt4'
_cell_volume   456.43428558
_cell_formula_units_Z   2
loop_
 _symmetry_equiv_pos_site_id
 _symmetry_equiv_pos_as_xyz
  1  'x, y, z'
loop_
 _atom_type_symbol
 _atom_type_oxidation_number
  Ce0+  0.0
  In0+  0.0
  Pt0+  0.0
loop_
 _atom_site_type_symbol
 _atom_site_label
 _atom_site_symmetry_multiplicity
 _atom_site_fract_x
 _atom_site_fract_y
 _atom_site_fract_z
 _atom_site_occupancy
  Ce0+  Ce0  1  0.00000000  0.00000000  0.50000000  1.0
  Ce0+  Ce1  1  0.50000000  0.50000000  0.00000000  1.0
  In0+  In2  1  0.00000000  0.00000000  0.00000000  1.0
  In0+  In3  1  0.50000000  0.50000000  0.50000000  1.0
  In0+  In4  1  0.50000000  0.00000000  0.75000000  1.0
  In0+  In5  1  0.00000000  0.50000000  0.75000000  1.0
  In0+  In6  1  0.50000000  0.00000000  0.25000000  1.0
  In0+  In7  1  0.00000000  0.50000000  0.25000000  1.0
  In0+  In8  1  0.50000000  0.00000000  0.89210000  1.0
  In0+  In9  1  0.00000000  0.50000000  0.89210000  1.0
  In0+  In10  1  0.50000000  0.00000000  0.10790000  1.0
  In0+  In11  1  0.00000000  0.50000000  0.10790000  1.0
  In0+  In12  1  0.00000000  0.50000000  0.39210000  1.0
  In0+  In13  1  0.50000000  0.00000000  0.39210000  1.0
  In0+  In14  1  0.00000000  0.50000000  0.60790000  1.0
  In0+  In15  1  0.50000000  0.00000000  0.60790000  1.0
  Pt0+  Pt16  1  0.00000000  0.00000000  0.67440000  1.0
  Pt0+  Pt17  1  0.00000000  0.00000000  0.32560000  1.0
  Pt0+  Pt18  1  0.50000000  0.50000000  0.17440000  1.0
  Pt0+  Pt19  1  0.50000000  0.50000000  0.82560000  1.0
