# generated using pymatgen
data_LaPRh
_symmetry_space_group_name_H-M   'P 1'
_cell_length_a   4.18460000
_cell_length_b   4.18460000
_cell_length_c   14.93580000
_cell_angle_alpha   90.00000000
_cell_angle_beta   90.00000000
_cell_angle_gamma   90.00000000
_symmetry_Int_Tables_number   1
_chemical_formula_structural   LaPRh
_chemical_formula_sum   'La4 P4 Rh4'
_cell_volume   261.53895909
_cell_formula_units_Z   4
loop_
 _symmetry_equiv_pos_site_id
 _symmetry_equiv_pos_as_xyz
  1  'x, y, z'
loop_
 _atom_type_symbol
 _atom_type_oxidation_number
  La0+  0.0
  P0+  0.0
  Rh0+  0.0
loop_
 _atom_site_type_symbol
 _atom_site_label
 _atom_site_symmetry_multiplicity
 _atom_site_fract_x
 _atom_site_fract_y
 _atom_site_fract_z
 _atom_site_occupancy
  La0+  La0  1  0.00000000  0.50000000  0.25000000  1.0
  La0+  La1  1  0.00000000  0.00000000  0.00000000  1.0
  La0+  La2  1  0.50000000  0.00000000  0.75000000  1.0
  La0+  La3  1  0.50000000  0.50000000  0.50000000  1.0
  P0+  P4  1  0.00000000  0.50000000  0.83570000  1.0
  P0+  P5  1  0.00000000  0.00000000  0.58570000  1.0
  P0+  P6  1  0.50000000  0.00000000  0.33570000  1.0
  P0+  P7  1  0.50000000  0.50000000  0.08570000  1.0
  Rh0+  Rh8  1  0.00000000  0.50000000  0.67150000  1.0
  Rh0+  Rh9  1  0.00000000  0.00000000  0.42150000  1.0
  Rh0+  Rh10  1  0.50000000  0.00000000  0.17150000  1.0
  Rh0+  Rh11  1  0.50000000  0.50000000  0.92150000  1.0
