# generated using pymatgen
data_LaAsIr
_symmetry_space_group_name_H-M   'P 1'
_cell_length_a   4.15050000
_cell_length_b   4.15050000
_cell_length_c   14.32770000
_cell_angle_alpha   90.00000000
_cell_angle_beta   90.00000000
_cell_angle_gamma   90.00000000
_symmetry_Int_Tables_number   1
_chemical_formula_structural   LaAsIr
_chemical_formula_sum   'La4 As4 Ir4'
_cell_volume   246.81827679
_cell_formula_units_Z   4
loop_
 _symmetry_equiv_pos_site_id
 _symmetry_equiv_pos_as_xyz
  1  'x, y, z'
loop_
 _atom_type_symbol
 _atom_type_oxidation_number
  La0+  0.0
  As0+  0.0
  Ir0+  0.0
loop_
 _atom_site_type_symbol
 _atom_site_label
 _atom_site_symmetry_multiplicity
 _atom_site_fract_x
 _atom_site_fract_y
 _atom_site_fract_z
 _atom_site_occupancy
  La0+  La0  1  0.00000000  0.50000000  0.25000000  1.0
  La0+  La1  1  0.00000000  0.00000000  0.00000000  1.0
  La0+  La2  1  0.50000000  0.00000000  0.75000000  1.0
  La0+  La3  1  0.50000000  0.50000000  0.50000000  1.0
  As0+  As4  1  0.00000000  0.50000000  0.82540000  1.0
  As0+  As5  1  0.00000000  0.00000000  0.57540000  1.0
  As0+  As6  1  0.50000000  0.00000000  0.32540000  1.0
  As0+  As7  1  0.50000000  0.50000000  0.07540000  1.0
  Ir0+  Ir8  1  0.00000000  0.50000000  0.66260000  1.0
  Ir0+  Ir9  1  0.00000000  0.00000000  0.41260000  1.0
  Ir0+  Ir10  1  0.50000000  0.00000000  0.16260000  1.0
  Ir0+  Ir11  1  0.50000000  0.50000000  0.91260000  1.0
