# generated using pymatgen
data_LaSi2
_symmetry_space_group_name_H-M   'P 1'
_cell_length_a   4.30000000
_cell_length_b   4.30000000
_cell_length_c   13.84000000
_cell_angle_alpha   90.00000000
_cell_angle_beta   90.00000000
_cell_angle_gamma   90.00000000
_symmetry_Int_Tables_number   1
_chemical_formula_structural   LaSi2
_chemical_formula_sum   'La4 Si8'
_cell_volume   255.90160000
_cell_formula_units_Z   4
loop_
 _symmetry_equiv_pos_site_id
 _symmetry_equiv_pos_as_xyz
  1  'x, y, z'
loop_
 _atom_type_symbol
 _atom_type_oxidation_number
  La0+  0.0
  Si0+  0.0
loop_
 _atom_site_type_symbol
 _atom_site_label
 _atom_site_symmetry_multiplicity
 _atom_site_fract_x
 _atom_site_fract_y
 _atom_site_fract_z
 _atom_site_occupancy
  La0+  La0  1  0.00000000  0.50000000  0.25000000  1.0
  La0+  La1  1  0.00000000  0.00000000  0.00000000  1.0
  La0+  La2  1  0.50000000  0.00000000  0.75000000  1.0
  La0+  La3  1  0.50000000  0.50000000  0.50000000  1.0
  Si0+  Si4  1  0.00000000  0.50000000  0.66700000  1.0
  Si0+  Si5  1  0.00000000  0.00000000  0.58300000  1.0
  Si0+  Si6  1  0.00000000  0.50000000  0.83300000  1.0
  Si0+  Si7  1  0.00000000  0.00000000  0.41700000  1.0
  Si0+  Si8  1  0.50000000  0.00000000  0.16700000  1.0
  Si0+  Si9  1  0.50000000  0.50000000  0.08300000  1.0
  Si0+  Si10  1  0.50000000  0.00000000  0.33300000  1.0
  Si0+  Si11  1  0.50000000  0.50000000  0.91700000  1.0
