# generated using pymatgen
data_Al2Au
_symmetry_space_group_name_H-M   'P 1'
_cell_length_a   6.00000000
_cell_length_b   6.00000000
_cell_length_c   6.00000000
_cell_angle_alpha   90.00000000
_cell_angle_beta   90.00000000
_cell_angle_gamma   90.00000000
_symmetry_Int_Tables_number   1
_chemical_formula_structural   Al2Au
_chemical_formula_sum   'Al8 Au4'
_cell_volume   216.00000000
_cell_formula_units_Z   4
loop_
 _symmetry_equiv_pos_site_id
 _symmetry_equiv_pos_as_xyz
  1  'x, y, z'
loop_
 _atom_type_symbol
 _atom_type_oxidation_number
  Al0+  0.0
  Au0+  0.0
loop_
 _atom_site_type_symbol
 _atom_site_label
 _atom_site_symmetry_multiplicity
 _atom_site_fract_x
 _atom_site_fract_y
 _atom_site_fract_z
 _atom_site_occupancy
  Al0+  Al0  1  0.25000000  0.25000000  0.75000000  1.0
  Al0+  Al1  1  0.25000000  0.75000000  0.25000000  1.0
  Al0+  Al2  1  0.75000000  0.25000000  0.25000000  1.0
  Al0+  Al3  1  0.75000000  0.75000000  0.75000000  1.0
  Al0+  Al4  1  0.75000000  0.75000000  0.25000000  1.0
  Al0+  Al5  1  0.75000000  0.25000000  0.75000000  1.0
  Al0+  Al6  1  0.25000000  0.75000000  0.75000000  1.0
  Al0+  Al7  1  0.25000000  0.25000000  0.25000000  1.0
  Au0+  Au8  1  0.00000000  0.00000000  0.00000000  1.0
  Au0+  Au9  1  0.00000000  0.50000000  0.50000000  1.0
  Au0+  Au10  1  0.50000000  0.00000000  0.50000000  1.0
  Au0+  Au11  1  0.50000000  0.50000000  0.00000000  1.0
