# generated using pymatgen
data_U(SiRu)2
_symmetry_space_group_name_H-M   'P 1'
_cell_length_a   4.12700000
_cell_length_b   4.12700000
_cell_length_c   9.61000000
_cell_angle_alpha   90.00000000
_cell_angle_beta   90.00000000
_cell_angle_gamma   90.00000000
_symmetry_Int_Tables_number   1
_chemical_formula_structural   U(SiRu)2
_chemical_formula_sum   'U2 Si4 Ru4'
_cell_volume   163.67875969
_cell_formula_units_Z   2
loop_
 _symmetry_equiv_pos_site_id
 _symmetry_equiv_pos_as_xyz
  1  'x, y, z'
loop_
 _atom_type_symbol
 _atom_type_oxidation_number
  U0+  0.0
  Si0+  0.0
  Ru0+  0.0
loop_
 _atom_site_type_symbol
 _atom_site_label
 _atom_site_symmetry_multiplicity
 _atom_site_fract_x
 _atom_site_fract_y
 _atom_site_fract_z
 _atom_site_occupancy
  U0+  U0  1  0.00000000  0.00000000  0.00000000  1.0
  U0+  U1  1  0.50000000  0.50000000  0.50000000  1.0
  Si0+  Si2  1  0.00000000  0.00000000  0.62900000  1.0
  Si0+  Si3  1  0.00000000  0.00000000  0.37100000  1.0
  Si0+  Si4  1  0.50000000  0.50000000  0.12900000  1.0
  Si0+  Si5  1  0.50000000  0.50000000  0.87100000  1.0
  Ru0+  Ru6  1  0.50000000  0.00000000  0.75000000  1.0
  Ru0+  Ru7  1  0.00000000  0.50000000  0.75000000  1.0
  Ru0+  Ru8  1  0.50000000  0.00000000  0.25000000  1.0
  Ru0+  Ru9  1  0.00000000  0.50000000  0.25000000  1.0
