# generated using pymatgen
data_CeCo2
_symmetry_space_group_name_H-M   'P 1'
_cell_length_a   7.16020000
_cell_length_b   7.16020000
_cell_length_c   7.16020000
_cell_angle_alpha   90.00000000
_cell_angle_beta   90.00000000
_cell_angle_gamma   90.00000000
_symmetry_Int_Tables_number   1
_chemical_formula_structural   CeCo2
_chemical_formula_sum   'Ce8 Co16'
_cell_volume   367.09245622
_cell_formula_units_Z   8
loop_
 _symmetry_equiv_pos_site_id
 _symmetry_equiv_pos_as_xyz
  1  'x, y, z'
loop_
 _atom_type_symbol
 _atom_type_oxidation_number
  Ce0+  0.0
  Co0+  0.0
loop_
 _atom_site_type_symbol
 _atom_site_label
 _atom_site_symmetry_multiplicity
 _atom_site_fract_x
 _atom_site_fract_y
 _atom_site_fract_z
 _atom_site_occupancy
  Ce0+  Ce0  1  0.25000000  0.25000000  0.25000000  1.0
  Ce0+  Ce1  1  0.00000000  0.00000000  0.00000000  1.0
  Ce0+  Ce2  1  0.25000000  0.75000000  0.75000000  1.0
  Ce0+  Ce3  1  0.00000000  0.50000000  0.50000000  1.0
  Ce0+  Ce4  1  0.75000000  0.25000000  0.75000000  1.0
  Ce0+  Ce5  1  0.50000000  0.00000000  0.50000000  1.0
  Ce0+  Ce6  1  0.75000000  0.75000000  0.25000000  1.0
  Ce0+  Ce7  1  0.50000000  0.50000000  0.00000000  1.0
  Co0+  Co8  1  0.87500000  0.87500000  0.62500000  1.0
  Co0+  Co9  1  0.87500000  0.62500000  0.87500000  1.0
  Co0+  Co10  1  0.62500000  0.87500000  0.87500000  1.0
  Co0+  Co11  1  0.62500000  0.62500000  0.62500000  1.0
  Co0+  Co12  1  0.37500000  0.37500000  0.62500000  1.0
  Co0+  Co13  1  0.37500000  0.62500000  0.37500000  1.0
  Co0+  Co14  1  0.62500000  0.37500000  0.37500000  1.0
  Co0+  Co15  1  0.87500000  0.37500000  0.12500000  1.0
  Co0+  Co16  1  0.87500000  0.12500000  0.37500000  1.0
  Co0+  Co17  1  0.62500000  0.12500000  0.12500000  1.0
  Co0+  Co18  1  0.37500000  0.87500000  0.12500000  1.0
  Co0+  Co19  1  0.37500000  0.12500000  0.87500000  1.0
  Co0+  Co20  1  0.12500000  0.87500000  0.37500000  1.0
  Co0+  Co21  1  0.12500000  0.62500000  0.12500000  1.0
  Co0+  Co22  1  0.12500000  0.37500000  0.87500000  1.0
  Co0+  Co23  1  0.12500000  0.12500000  0.62500000  1.0
