# generated using pymatgen
data_UGe2
_symmetry_space_group_name_H-M   'P 1'
_cell_length_a   3.99700000
_cell_length_b   15.03900000
_cell_length_c   4.08700000
_cell_angle_alpha   90.00000000
_cell_angle_beta   90.00000000
_cell_angle_gamma   90.00000000
_symmetry_Int_Tables_number   1
_chemical_formula_structural   UGe2
_chemical_formula_sum   'U4 Ge8'
_cell_volume   245.67317882
_cell_formula_units_Z   4
loop_
 _symmetry_equiv_pos_site_id
 _symmetry_equiv_pos_as_xyz
  1  'x, y, z'
loop_
 _atom_type_symbol
 _atom_type_oxidation_number
  U0+  0.0
  Ge0+  0.0
loop_
 _atom_site_type_symbol
 _atom_site_label
 _atom_site_symmetry_multiplicity
 _atom_site_fract_x
 _atom_site_fract_y
 _atom_site_fract_z
 _atom_site_occupancy
  U0+  U0  1  0.00000000  0.85906000  0.50000000  1.0
  U0+  U1  1  0.00000000  0.14094000  0.50000000  1.0
  U0+  U2  1  0.50000000  0.35906000  0.50000000  1.0
  U0+  U3  1  0.50000000  0.64094000  0.50000000  1.0
  Ge0+  Ge4  1  0.00000000  0.69221000  0.00000000  1.0
  Ge0+  Ge5  1  0.00000000  0.30779000  0.00000000  1.0
  Ge0+  Ge6  1  0.50000000  0.19221000  0.00000000  1.0
  Ge0+  Ge7  1  0.50000000  0.80779000  0.00000000  1.0
  Ge0+  Ge8  1  0.00000000  0.00000000  0.00000000  1.0
  Ge0+  Ge9  1  0.50000000  0.50000000  0.00000000  1.0
  Ge0+  Ge10  1  0.50000000  0.00000000  0.50000000  1.0
  Ge0+  Ge11  1  0.00000000  0.50000000  0.50000000  1.0
