# generated using pymatgen
data_Rb(WO3)3
_symmetry_space_group_name_H-M   'P 1'
_cell_length_a   7.38420000
_cell_length_b   7.38420000
_cell_length_c   7.56820000
_cell_angle_alpha   90.00000000
_cell_angle_beta   90.00000000
_cell_angle_gamma   120.00000000
_symmetry_Int_Tables_number   1
_chemical_formula_structural   Rb(WO3)3
_chemical_formula_sum   'Rb2 W6 O18'
_cell_volume   357.37990909
_cell_formula_units_Z   2
loop_
 _symmetry_equiv_pos_site_id
 _symmetry_equiv_pos_as_xyz
  1  'x, y, z'
loop_
 _atom_type_symbol
 _atom_type_oxidation_number
  Rb+  1.0
  W6+  6.0
  O2-  -2.0
loop_
 _atom_site_type_symbol
 _atom_site_label
 _atom_site_symmetry_multiplicity
 _atom_site_fract_x
 _atom_site_fract_y
 _atom_site_fract_z
 _atom_site_occupancy
  Rb+  Rb0  1  0.00000000  0.00000000  0.50000000  1.0
  Rb+  Rb1  1  0.00000000  0.00000000  0.00000000  1.0
  W6+  W2  1  0.51700000  0.51700000  0.25000000  1.0
  W6+  W3  1  0.48300000  0.00000000  0.25000000  1.0
  W6+  W4  1  0.00000000  0.48300000  0.25000000  1.0
  W6+  W5  1  0.48300000  0.48300000  0.75000000  1.0
  W6+  W6  1  0.51700000  0.00000000  0.75000000  1.0
  W6+  W7  1  0.00000000  0.51700000  0.75000000  1.0
  O2-  O8  1  0.50000000  0.50000000  0.50000000  1.0
  O2-  O9  1  0.50000000  0.00000000  0.50000000  1.0
  O2-  O10  1  0.00000000  0.50000000  0.50000000  1.0
  O2-  O11  1  0.50000000  0.50000000  0.00000000  1.0
  O2-  O12  1  0.50000000  0.00000000  0.00000000  1.0
  O2-  O13  1  0.00000000  0.50000000  0.00000000  1.0
  O2-  O14  1  0.57870000  0.78580000  0.25000000  1.0
  O2-  O15  1  0.21420000  0.79290000  0.25000000  1.0
  O2-  O16  1  0.20710000  0.42130000  0.25000000  1.0
  O2-  O17  1  0.78580000  0.57870000  0.25000000  1.0
  O2-  O18  1  0.79290000  0.21420000  0.25000000  1.0
  O2-  O19  1  0.42130000  0.20710000  0.25000000  1.0
  O2-  O20  1  0.42130000  0.21420000  0.75000000  1.0
  O2-  O21  1  0.78580000  0.20710000  0.75000000  1.0
  O2-  O22  1  0.79290000  0.57870000  0.75000000  1.0
  O2-  O23  1  0.21420000  0.42130000  0.75000000  1.0
  O2-  O24  1  0.20710000  0.78580000  0.75000000  1.0
  O2-  O25  1  0.57870000  0.79290000  0.75000000  1.0
