# generated using pymatgen
data_La3(GePd)4
_symmetry_space_group_name_H-M   'P 1'
_cell_length_a   4.22000000
_cell_length_b   4.38500000
_cell_length_c   25.00300000
_cell_angle_alpha   90.00000000
_cell_angle_beta   90.00000000
_cell_angle_gamma   90.00000000
_symmetry_Int_Tables_number   1
_chemical_formula_structural   La3(GePd)4
_chemical_formula_sum   'La6 Ge8 Pd8'
_cell_volume   462.67301410
_cell_formula_units_Z   2
loop_
 _symmetry_equiv_pos_site_id
 _symmetry_equiv_pos_as_xyz
  1  'x, y, z'
loop_
 _atom_type_symbol
 _atom_type_oxidation_number
  La0+  0.0
  Ge0+  0.0
  Pd0+  0.0
loop_
 _atom_site_type_symbol
 _atom_site_label
 _atom_site_symmetry_multiplicity
 _atom_site_fract_x
 _atom_site_fract_y
 _atom_site_fract_z
 _atom_site_occupancy
  La0+  La0  1  0.00000000  0.00000000  0.00000000  1.0
  La0+  La1  1  0.50000000  0.50000000  0.50000000  1.0
  La0+  La2  1  0.50000000  0.00000000  0.64870000  1.0
  La0+  La3  1  0.50000000  0.00000000  0.35130000  1.0
  La0+  La4  1  0.00000000  0.50000000  0.14870000  1.0
  La0+  La5  1  0.00000000  0.50000000  0.85130000  1.0
  Ge0+  Ge6  1  0.50000000  0.00000000  0.80280000  1.0
  Ge0+  Ge7  1  0.50000000  0.00000000  0.19720000  1.0
  Ge0+  Ge8  1  0.00000000  0.50000000  0.30280000  1.0
  Ge0+  Ge9  1  0.00000000  0.50000000  0.69720000  1.0
  Ge0+  Ge10  1  0.00000000  0.00000000  0.54970000  1.0
  Ge0+  Ge11  1  0.00000000  0.00000000  0.45030000  1.0
  Ge0+  Ge12  1  0.50000000  0.50000000  0.04970000  1.0
  Ge0+  Ge13  1  0.50000000  0.50000000  0.95030000  1.0
  Pd0+  Pd14  1  0.50000000  0.00000000  0.90210000  1.0
  Pd0+  Pd15  1  0.50000000  0.00000000  0.09790000  1.0
  Pd0+  Pd16  1  0.00000000  0.50000000  0.40210000  1.0
  Pd0+  Pd17  1  0.00000000  0.50000000  0.59790000  1.0
  Pd0+  Pd18  1  0.00000000  0.00000000  0.74990000  1.0
  Pd0+  Pd19  1  0.00000000  0.00000000  0.25010000  1.0
  Pd0+  Pd20  1  0.50000000  0.50000000  0.24990000  1.0
  Pd0+  Pd21  1  0.50000000  0.50000000  0.75010000  1.0
