# generated using pymatgen
data_LaSi10
_symmetry_space_group_name_H-M   'P 1'
_cell_length_a   9.62300000
_cell_length_b   9.62300000
_cell_length_c   4.72300000
_cell_angle_alpha   90.00000000
_cell_angle_beta   90.00000000
_cell_angle_gamma   120.00000000
_symmetry_Int_Tables_number   1
_chemical_formula_structural   LaSi10
_chemical_formula_sum   'La2 Si20'
_cell_volume   378.76474526
_cell_formula_units_Z   2
loop_
 _symmetry_equiv_pos_site_id
 _symmetry_equiv_pos_as_xyz
  1  'x, y, z'
loop_
 _atom_type_symbol
 _atom_type_oxidation_number
  La0+  0.0
  Si0+  0.0
loop_
 _atom_site_type_symbol
 _atom_site_label
 _atom_site_symmetry_multiplicity
 _atom_site_fract_x
 _atom_site_fract_y
 _atom_site_fract_z
 _atom_site_occupancy
  La0+  La0  1  0.33333333  0.66666667  0.25000000  1.0
  La0+  La1  1  0.66666667  0.33333333  0.75000000  1.0
  Si0+  Si2  1  0.00000000  0.00000000  0.25000000  1.0
  Si0+  Si3  1  0.00000000  0.00000000  0.75000000  1.0
  Si0+  Si4  1  0.04715700  0.52357800  0.75000000  1.0
  Si0+  Si5  1  0.47642200  0.52357900  0.75000000  1.0
  Si0+  Si6  1  0.47642100  0.95284300  0.75000000  1.0
  Si0+  Si7  1  0.95284300  0.47642200  0.25000000  1.0
  Si0+  Si8  1  0.52357800  0.47642100  0.25000000  1.0
  Si0+  Si9  1  0.52357900  0.04715700  0.25000000  1.0
  Si0+  Si10  1  0.18226700  0.81773300  0.75000000  1.0
  Si0+  Si11  1  0.18226700  0.36453400  0.75000000  1.0
  Si0+  Si12  1  0.63546600  0.81773300  0.75000000  1.0
  Si0+  Si13  1  0.81773300  0.18226700  0.25000000  1.0
  Si0+  Si14  1  0.81773300  0.63546600  0.25000000  1.0
  Si0+  Si15  1  0.36453400  0.18226700  0.25000000  1.0
  Si0+  Si16  1  0.14240100  0.85760000  0.25000000  1.0
  Si0+  Si17  1  0.14240000  0.28480100  0.25000000  1.0
  Si0+  Si18  1  0.71519900  0.85759900  0.25000000  1.0
  Si0+  Si19  1  0.85759900  0.14240000  0.75000000  1.0
  Si0+  Si20  1  0.85760000  0.71519900  0.75000000  1.0
  Si0+  Si21  1  0.28480100  0.14240100  0.75000000  1.0
