# generated using pymatgen
data_La(NiP)2
_symmetry_space_group_name_H-M   'P 1'
_cell_length_a   4.01450000
_cell_length_b   4.01450000
_cell_length_c   9.64710000
_cell_angle_alpha   90.00000000
_cell_angle_beta   90.00000000
_cell_angle_gamma   90.00000000
_symmetry_Int_Tables_number   1
_chemical_formula_structural   La(NiP)2
_chemical_formula_sum   'La2 Ni4 P4'
_cell_volume   155.47469190
_cell_formula_units_Z   2
loop_
 _symmetry_equiv_pos_site_id
 _symmetry_equiv_pos_as_xyz
  1  'x, y, z'
loop_
 _atom_type_symbol
 _atom_type_oxidation_number
  La0+  0.0
  Ni0+  0.0
  P0+  0.0
loop_
 _atom_site_type_symbol
 _atom_site_label
 _atom_site_symmetry_multiplicity
 _atom_site_fract_x
 _atom_site_fract_y
 _atom_site_fract_z
 _atom_site_occupancy
  La0+  La0  1  0.00000000  0.00000000  0.00000000  1.0
  La0+  La1  1  0.50000000  0.50000000  0.50000000  1.0
  Ni0+  Ni2  1  0.50000000  0.00000000  0.75000000  1.0
  Ni0+  Ni3  1  0.00000000  0.50000000  0.75000000  1.0
  Ni0+  Ni4  1  0.50000000  0.00000000  0.25000000  1.0
  Ni0+  Ni5  1  0.00000000  0.50000000  0.25000000  1.0
  P0+  P6  1  0.00000000  0.00000000  0.63190000  1.0
  P0+  P7  1  0.00000000  0.00000000  0.36810000  1.0
  P0+  P8  1  0.50000000  0.50000000  0.13190000  1.0
  P0+  P9  1  0.50000000  0.50000000  0.86810000  1.0
