# generated using pymatgen
data_Lu2Fe3Si5
_symmetry_space_group_name_H-M   'P 1'
_cell_length_a   10.16400000
_cell_length_b   10.16400000
_cell_length_c   5.28400000
_cell_angle_alpha   90.00000000
_cell_angle_beta   90.00000000
_cell_angle_gamma   90.00000000
_symmetry_Int_Tables_number   1
_chemical_formula_structural   Lu2Fe3Si5
_chemical_formula_sum   'Lu8 Fe12 Si20'
_cell_volume   545.87363846
_cell_formula_units_Z   4
loop_
 _symmetry_equiv_pos_site_id
 _symmetry_equiv_pos_as_xyz
  1  'x, y, z'
loop_
 _atom_type_symbol
 _atom_type_oxidation_number
  Lu3+  3.0
  Fe0+  0.0
  Si0+  0.0
loop_
 _atom_site_type_symbol
 _atom_site_label
 _atom_site_symmetry_multiplicity
 _atom_site_fract_x
 _atom_site_fract_y
 _atom_site_fract_z
 _atom_site_occupancy
  Lu3+  Lu0  1  0.75000000  0.57010000  0.50000000  1.0
  Lu3+  Lu1  1  0.25000000  0.42990000  0.50000000  1.0
  Lu3+  Lu2  1  0.75000000  0.07010000  0.00000000  1.0
  Lu3+  Lu3  1  0.25000000  0.92990000  0.00000000  1.0
  Lu3+  Lu4  1  0.57010000  0.25000000  0.50000000  1.0
  Lu3+  Lu5  1  0.42990000  0.75000000  0.50000000  1.0
  Lu3+  Lu6  1  0.07010000  0.25000000  0.00000000  1.0
  Lu3+  Lu7  1  0.92990000  0.75000000  0.00000000  1.0
  Fe0+  Fe8  1  0.00000000  0.50000000  0.25000000  1.0
  Fe0+  Fe9  1  0.50000000  0.00000000  0.75000000  1.0
  Fe0+  Fe10  1  0.50000000  0.00000000  0.25000000  1.0
  Fe0+  Fe11  1  0.00000000  0.50000000  0.75000000  1.0
  Fe0+  Fe12  1  0.86010000  0.87900000  0.50000000  1.0
  Fe0+  Fe13  1  0.13990000  0.12100000  0.50000000  1.0
  Fe0+  Fe14  1  0.63990000  0.37900000  0.00000000  1.0
  Fe0+  Fe15  1  0.36010000  0.62100000  0.00000000  1.0
  Fe0+  Fe16  1  0.87900000  0.13990000  0.50000000  1.0
  Fe0+  Fe17  1  0.12100000  0.86010000  0.50000000  1.0
  Fe0+  Fe18  1  0.37900000  0.36010000  0.00000000  1.0
  Fe0+  Fe19  1  0.62100000  0.63990000  0.00000000  1.0
  Si0+  Si20  1  0.17790000  0.67790000  0.25000000  1.0
  Si0+  Si21  1  0.82210000  0.32210000  0.25000000  1.0
  Si0+  Si22  1  0.32210000  0.17790000  0.75000000  1.0
  Si0+  Si23  1  0.67790000  0.82210000  0.75000000  1.0
  Si0+  Si24  1  0.67790000  0.82210000  0.25000000  1.0
  Si0+  Si25  1  0.32210000  0.17790000  0.25000000  1.0
  Si0+  Si26  1  0.17790000  0.67790000  0.75000000  1.0
  Si0+  Si27  1  0.82210000  0.32210000  0.75000000  1.0
  Si0+  Si28  1  0.50000000  0.50000000  0.24720000  1.0
  Si0+  Si29  1  0.00000000  0.00000000  0.74720000  1.0
  Si0+  Si30  1  0.50000000  0.50000000  0.75280000  1.0
  Si0+  Si31  1  0.00000000  0.00000000  0.25280000  1.0
  Si0+  Si32  1  0.97610000  0.67990000  0.50000000  1.0
  Si0+  Si33  1  0.02390000  0.32010000  0.50000000  1.0
  Si0+  Si34  1  0.52390000  0.17990000  0.00000000  1.0
  Si0+  Si35  1  0.47610000  0.82010000  0.00000000  1.0
  Si0+  Si36  1  0.67990000  0.02390000  0.50000000  1.0
  Si0+  Si37  1  0.32010000  0.97610000  0.50000000  1.0
  Si0+  Si38  1  0.17990000  0.47610000  0.00000000  1.0
  Si0+  Si39  1  0.82010000  0.52390000  0.00000000  1.0
