# generated using pymatgen
data_La3SiPd5
_symmetry_space_group_name_H-M   'P 1'
_cell_length_a   13.33420000
_cell_length_b   7.54790000
_cell_length_c   7.69950000
_cell_angle_alpha   90.00000000
_cell_angle_beta   90.00000000
_cell_angle_gamma   90.00000000
_symmetry_Int_Tables_number   1
_chemical_formula_structural   La3SiPd5
_chemical_formula_sum   'La12 Si4 Pd20'
_cell_volume   774.91778038
_cell_formula_units_Z   4
loop_
 _symmetry_equiv_pos_site_id
 _symmetry_equiv_pos_as_xyz
  1  'x, y, z'
loop_
 _atom_type_symbol
 _atom_type_oxidation_number
  La0+  0.0
  Si0+  0.0
  Pd0+  0.0
loop_
 _atom_site_type_symbol
 _atom_site_label
 _atom_site_symmetry_multiplicity
 _atom_site_fract_x
 _atom_site_fract_y
 _atom_site_fract_z
 _atom_site_occupancy
  La0+  La0  1  0.00000000  0.75000000  0.58820000  1.0
  La0+  La1  1  0.00000000  0.25000000  0.41180000  1.0
  La0+  La2  1  0.50000000  0.25000000  0.08820000  1.0
  La0+  La3  1  0.50000000  0.75000000  0.91180000  1.0
  La0+  La4  1  0.79543000  0.75000000  0.97931000  1.0
  La0+  La5  1  0.79543000  0.25000000  0.02069000  1.0
  La0+  La6  1  0.20457000  0.25000000  0.02069000  1.0
  La0+  La7  1  0.20457000  0.75000000  0.97931000  1.0
  La0+  La8  1  0.29543000  0.25000000  0.47931000  1.0
  La0+  La9  1  0.29543000  0.75000000  0.52069000  1.0
  La0+  La10  1  0.70457000  0.75000000  0.52069000  1.0
  La0+  La11  1  0.70457000  0.25000000  0.47931000  1.0
  Si0+  Si12  1  0.00000000  0.75000000  0.18130000  1.0
  Si0+  Si13  1  0.00000000  0.25000000  0.81870000  1.0
  Si0+  Si14  1  0.50000000  0.25000000  0.68130000  1.0
  Si0+  Si15  1  0.50000000  0.75000000  0.31870000  1.0
  Pd0+  Pd16  1  0.00000000  0.50000000  0.00000000  1.0
  Pd0+  Pd17  1  0.00000000  0.00000000  0.00000000  1.0
  Pd0+  Pd18  1  0.50000000  0.00000000  0.50000000  1.0
  Pd0+  Pd19  1  0.50000000  0.50000000  0.50000000  1.0
  Pd0+  Pd20  1  0.86617000  0.55832000  0.29140000  1.0
  Pd0+  Pd21  1  0.86617000  0.44168000  0.70860000  1.0
  Pd0+  Pd22  1  0.86617000  0.05832000  0.70860000  1.0
  Pd0+  Pd23  1  0.86617000  0.94168000  0.29140000  1.0
  Pd0+  Pd24  1  0.13383000  0.44168000  0.70860000  1.0
  Pd0+  Pd25  1  0.13383000  0.55832000  0.29140000  1.0
  Pd0+  Pd26  1  0.13383000  0.94168000  0.29140000  1.0
  Pd0+  Pd27  1  0.13383000  0.05832000  0.70860000  1.0
  Pd0+  Pd28  1  0.36617000  0.05832000  0.79140000  1.0
  Pd0+  Pd29  1  0.36617000  0.94168000  0.20860000  1.0
  Pd0+  Pd30  1  0.36617000  0.55832000  0.20860000  1.0
  Pd0+  Pd31  1  0.36617000  0.44168000  0.79140000  1.0
  Pd0+  Pd32  1  0.63383000  0.94168000  0.20860000  1.0
  Pd0+  Pd33  1  0.63383000  0.05832000  0.79140000  1.0
  Pd0+  Pd34  1  0.63383000  0.44168000  0.79140000  1.0
  Pd0+  Pd35  1  0.63383000  0.55832000  0.20860000  1.0
