# generated using pymatgen
data_La2Sn5
_symmetry_space_group_name_H-M   'P 1'
_cell_length_a   4.63850000
_cell_length_b   35.81300000
_cell_length_c   4.69830000
_cell_angle_alpha   90.00000000
_cell_angle_beta   90.00000000
_cell_angle_gamma   90.00000000
_symmetry_Int_Tables_number   1
_chemical_formula_structural   La2Sn5
_chemical_formula_sum   'La8 Sn20'
_cell_volume   780.47502073
_cell_formula_units_Z   4
loop_
 _symmetry_equiv_pos_site_id
 _symmetry_equiv_pos_as_xyz
  1  'x, y, z'
loop_
 _atom_type_symbol
 _atom_type_oxidation_number
  La0+  0.0
  Sn0+  0.0
loop_
 _atom_site_type_symbol
 _atom_site_label
 _atom_site_symmetry_multiplicity
 _atom_site_fract_x
 _atom_site_fract_y
 _atom_site_fract_z
 _atom_site_occupancy
  La0+  La0  1  0.00000000  0.70320000  0.00000000  1.0
  La0+  La1  1  0.00000000  0.29680000  0.00000000  1.0
  La0+  La2  1  0.50000000  0.20320000  0.00000000  1.0
  La0+  La3  1  0.50000000  0.79680000  0.00000000  1.0
  La0+  La4  1  0.00000000  0.56760000  0.00000000  1.0
  La0+  La5  1  0.00000000  0.43240000  0.00000000  1.0
  La0+  La6  1  0.50000000  0.06760000  0.00000000  1.0
  La0+  La7  1  0.50000000  0.93240000  0.00000000  1.0
  Sn0+  Sn8  1  0.00000000  0.77840000  0.50000000  1.0
  Sn0+  Sn9  1  0.00000000  0.22160000  0.50000000  1.0
  Sn0+  Sn10  1  0.50000000  0.27840000  0.50000000  1.0
  Sn0+  Sn11  1  0.50000000  0.72160000  0.50000000  1.0
  Sn0+  Sn12  1  0.00000000  0.86180000  0.00000000  1.0
  Sn0+  Sn13  1  0.00000000  0.13820000  0.00000000  1.0
  Sn0+  Sn14  1  0.50000000  0.36180000  0.00000000  1.0
  Sn0+  Sn15  1  0.50000000  0.63820000  0.00000000  1.0
  Sn0+  Sn16  1  0.00000000  0.63720000  0.50000000  1.0
  Sn0+  Sn17  1  0.00000000  0.36280000  0.50000000  1.0
  Sn0+  Sn18  1  0.50000000  0.13720000  0.50000000  1.0
  Sn0+  Sn19  1  0.50000000  0.86280000  0.50000000  1.0
  Sn0+  Sn20  1  0.00000000  0.92810000  0.50000000  1.0
  Sn0+  Sn21  1  0.00000000  0.07190000  0.50000000  1.0
  Sn0+  Sn22  1  0.50000000  0.42810000  0.50000000  1.0
  Sn0+  Sn23  1  0.50000000  0.57190000  0.50000000  1.0
  Sn0+  Sn24  1  0.00000000  0.00000000  0.00000000  1.0
  Sn0+  Sn25  1  0.50000000  0.50000000  0.00000000  1.0
  Sn0+  Sn26  1  0.50000000  0.00000000  0.50000000  1.0
  Sn0+  Sn27  1  0.00000000  0.50000000  0.50000000  1.0
