# generated using pymatgen
data_La3Ni2B2N3
_symmetry_space_group_name_H-M   'P 1'
_cell_length_a   3.72950000
_cell_length_b   3.72950000
_cell_length_c   20.56250000
_cell_angle_alpha   90.00000000
_cell_angle_beta   90.00000000
_cell_angle_gamma   90.00000000
_symmetry_Int_Tables_number   1
_chemical_formula_structural   La3Ni2B2N3
_chemical_formula_sum   'La6 Ni4 B4 N6'
_cell_volume   286.00731327
_cell_formula_units_Z   2
loop_
 _symmetry_equiv_pos_site_id
 _symmetry_equiv_pos_as_xyz
  1  'x, y, z'
loop_
 _atom_type_symbol
 _atom_type_oxidation_number
  La0+  0.0
  Ni0+  0.0
  B0+  0.0
  N0+  0.0
loop_
 _atom_site_type_symbol
 _atom_site_label
 _atom_site_symmetry_multiplicity
 _atom_site_fract_x
 _atom_site_fract_y
 _atom_site_fract_z
 _atom_site_occupancy
  La0+  La0  1  0.00000000  0.00000000  0.00000000  1.0
  La0+  La1  1  0.50000000  0.50000000  0.50000000  1.0
  La0+  La2  1  0.50000000  0.50000000  0.12946000  1.0
  La0+  La3  1  0.50000000  0.50000000  0.87054000  1.0
  La0+  La4  1  0.00000000  0.00000000  0.62946000  1.0
  La0+  La5  1  0.00000000  0.00000000  0.37054000  1.0
  Ni0+  Ni6  1  0.50000000  0.00000000  0.25000000  1.0
  Ni0+  Ni7  1  0.00000000  0.50000000  0.25000000  1.0
  Ni0+  Ni8  1  0.50000000  0.00000000  0.75000000  1.0
  Ni0+  Ni9  1  0.00000000  0.50000000  0.75000000  1.0
  B0+  B10  1  0.00000000  0.00000000  0.80630000  1.0
  B0+  B11  1  0.00000000  0.00000000  0.19370000  1.0
  B0+  B12  1  0.50000000  0.50000000  0.30630000  1.0
  B0+  B13  1  0.50000000  0.50000000  0.69370000  1.0
  N0+  N14  1  0.50000000  0.50000000  0.00000000  1.0
  N0+  N15  1  0.00000000  0.00000000  0.50000000  1.0
  N0+  N16  1  0.00000000  0.00000000  0.87580000  1.0
  N0+  N17  1  0.00000000  0.00000000  0.12420000  1.0
  N0+  N18  1  0.50000000  0.50000000  0.37580000  1.0
  N0+  N19  1  0.50000000  0.50000000  0.62420000  1.0
