# generated using pymatgen
data_La9B3C6Br5
_symmetry_space_group_name_H-M   'P 1'
_cell_length_a   33.19300000
_cell_length_b   3.85300000
_cell_length_c   7.90600000
_cell_angle_alpha   90.00000000
_cell_angle_beta   90.00000000
_cell_angle_gamma   90.00000000
_symmetry_Int_Tables_number   1
_chemical_formula_structural   La9B3C6Br5
_chemical_formula_sum   'La18 B6 C12 Br10'
_cell_volume   1011.11912487
_cell_formula_units_Z   2
loop_
 _symmetry_equiv_pos_site_id
 _symmetry_equiv_pos_as_xyz
  1  'x, y, z'
loop_
 _atom_type_symbol
 _atom_type_oxidation_number
  La3+  3.0
  B1.33-  -1.33
  C3-  -3.0
  Br-  -1.0
loop_
 _atom_site_type_symbol
 _atom_site_label
 _atom_site_symmetry_multiplicity
 _atom_site_fract_x
 _atom_site_fract_y
 _atom_site_fract_z
 _atom_site_occupancy
  La3+  La0  1  0.00933000  0.75000000  0.80270000  1.0
  La3+  La1  1  0.49067000  0.75000000  0.80270000  1.0
  La3+  La2  1  0.99067000  0.25000000  0.19730000  1.0
  La3+  La3  1  0.50933000  0.25000000  0.19730000  1.0
  La3+  La4  1  0.75000000  0.75000000  0.45360000  1.0
  La3+  La5  1  0.25000000  0.25000000  0.54640000  1.0
  La3+  La6  1  0.09591000  0.75000000  0.08870000  1.0
  La3+  La7  1  0.40409000  0.75000000  0.08870000  1.0
  La3+  La8  1  0.90409000  0.25000000  0.91130000  1.0
  La3+  La9  1  0.59591000  0.25000000  0.91130000  1.0
  La3+  La10  1  0.80544000  0.75000000  0.04570000  1.0
  La3+  La11  1  0.69456000  0.75000000  0.04570000  1.0
  La3+  La12  1  0.19456000  0.25000000  0.95430000  1.0
  La3+  La13  1  0.30544000  0.25000000  0.95430000  1.0
  La3+  La14  1  0.13304000  0.75000000  0.64970000  1.0
  La3+  La15  1  0.36696000  0.75000000  0.64970000  1.0
  La3+  La16  1  0.86696000  0.25000000  0.35030000  1.0
  La3+  La17  1  0.63304000  0.25000000  0.35030000  1.0
  B1.33-  B18  1  0.07960000  0.25000000  0.85640000  1.0
  B1.33-  B19  1  0.42040000  0.25000000  0.85640000  1.0
  B1.33-  B20  1  0.92040000  0.75000000  0.14360000  1.0
  B1.33-  B21  1  0.57960000  0.75000000  0.14360000  1.0
  B1.33-  B22  1  0.75000000  0.25000000  0.22620000  1.0
  B1.33-  B23  1  0.25000000  0.75000000  0.77380000  1.0
  C3-  C24  1  0.12530000  0.25000000  0.86250000  1.0
  C3-  C25  1  0.37470000  0.25000000  0.86250000  1.0
  C3-  C26  1  0.87470000  0.75000000  0.13750000  1.0
  C3-  C27  1  0.62530000  0.75000000  0.13750000  1.0
  C3-  C28  1  0.79400000  0.25000000  0.27410000  1.0
  C3-  C29  1  0.70600000  0.25000000  0.27410000  1.0
  C3-  C30  1  0.20600000  0.75000000  0.72590000  1.0
  C3-  C31  1  0.29400000  0.75000000  0.72590000  1.0
  C3-  C32  1  0.95660000  0.75000000  0.02370000  1.0
  C3-  C33  1  0.54340000  0.75000000  0.02370000  1.0
  C3-  C34  1  0.04340000  0.25000000  0.97630000  1.0
  C3-  C35  1  0.45660000  0.25000000  0.97630000  1.0
  Br-  Br36  1  0.04808000  0.75000000  0.42720000  1.0
  Br-  Br37  1  0.45192000  0.75000000  0.42720000  1.0
  Br-  Br38  1  0.95192000  0.25000000  0.57280000  1.0
  Br-  Br39  1  0.54808000  0.25000000  0.57280000  1.0
  Br-  Br40  1  0.84801000  0.75000000  0.67240000  1.0
  Br-  Br41  1  0.65199000  0.75000000  0.67240000  1.0
  Br-  Br42  1  0.15199000  0.25000000  0.32760000  1.0
  Br-  Br43  1  0.34801000  0.25000000  0.32760000  1.0
  Br-  Br44  1  0.25000000  0.75000000  0.21420000  1.0
  Br-  Br45  1  0.75000000  0.25000000  0.78580000  1.0
