# generated using pymatgen
data_La2Si5Rh3
_symmetry_space_group_name_H-M   'P 1'
_cell_length_a   9.94400000
_cell_length_b   11.88600000
_cell_length_c   5.85500000
_cell_angle_alpha   90.00000000
_cell_angle_beta   90.00000000
_cell_angle_gamma   90.00000000
_symmetry_Int_Tables_number   1
_chemical_formula_structural   La2Si5Rh3
_chemical_formula_sum   'La8 Si20 Rh12'
_cell_volume   692.02811832
_cell_formula_units_Z   4
loop_
 _symmetry_equiv_pos_site_id
 _symmetry_equiv_pos_as_xyz
  1  'x, y, z'
loop_
 _atom_type_symbol
 _atom_type_oxidation_number
  La0+  0.0
  Si0+  0.0
  Rh0+  0.0
loop_
 _atom_site_type_symbol
 _atom_site_label
 _atom_site_symmetry_multiplicity
 _atom_site_fract_x
 _atom_site_fract_y
 _atom_site_fract_z
 _atom_site_occupancy
  La0+  La0  1  0.73400000  0.36910000  0.50000000  1.0
  La0+  La1  1  0.26600000  0.63090000  0.50000000  1.0
  La0+  La2  1  0.26600000  0.36910000  0.00000000  1.0
  La0+  La3  1  0.73400000  0.63090000  0.00000000  1.0
  La0+  La4  1  0.23400000  0.86910000  0.00000000  1.0
  La0+  La5  1  0.76600000  0.13090000  0.00000000  1.0
  La0+  La6  1  0.76600000  0.86910000  0.50000000  1.0
  La0+  La7  1  0.23400000  0.13090000  0.50000000  1.0
  Si0+  Si8  1  0.65220000  0.10630000  0.50000000  1.0
  Si0+  Si9  1  0.34780000  0.89370000  0.50000000  1.0
  Si0+  Si10  1  0.34780000  0.10630000  0.00000000  1.0
  Si0+  Si11  1  0.65220000  0.89370000  0.00000000  1.0
  Si0+  Si12  1  0.15220000  0.60630000  0.00000000  1.0
  Si0+  Si13  1  0.84780000  0.39370000  0.00000000  1.0
  Si0+  Si14  1  0.84780000  0.60630000  0.50000000  1.0
  Si0+  Si15  1  0.15220000  0.39370000  0.50000000  1.0
  Si0+  Si16  1  0.00000000  0.27550000  0.75000000  1.0
  Si0+  Si17  1  0.00000000  0.72450000  0.75000000  1.0
  Si0+  Si18  1  0.00000000  0.72450000  0.25000000  1.0
  Si0+  Si19  1  0.00000000  0.27550000  0.25000000  1.0
  Si0+  Si20  1  0.50000000  0.77550000  0.25000000  1.0
  Si0+  Si21  1  0.50000000  0.22450000  0.25000000  1.0
  Si0+  Si22  1  0.50000000  0.22450000  0.75000000  1.0
  Si0+  Si23  1  0.50000000  0.77550000  0.75000000  1.0
  Si0+  Si24  1  0.00000000  0.00000000  0.75000000  1.0
  Si0+  Si25  1  0.00000000  0.00000000  0.25000000  1.0
  Si0+  Si26  1  0.50000000  0.50000000  0.25000000  1.0
  Si0+  Si27  1  0.50000000  0.50000000  0.75000000  1.0
  Rh0+  Rh28  1  0.89330000  0.13810000  0.50000000  1.0
  Rh0+  Rh29  1  0.10670000  0.86190000  0.50000000  1.0
  Rh0+  Rh30  1  0.10670000  0.13810000  0.00000000  1.0
  Rh0+  Rh31  1  0.89330000  0.86190000  0.00000000  1.0
  Rh0+  Rh32  1  0.39330000  0.63810000  0.00000000  1.0
  Rh0+  Rh33  1  0.60670000  0.36190000  0.00000000  1.0
  Rh0+  Rh34  1  0.60670000  0.63810000  0.50000000  1.0
  Rh0+  Rh35  1  0.39330000  0.36190000  0.50000000  1.0
  Rh0+  Rh36  1  0.50000000  0.00000000  0.75000000  1.0
  Rh0+  Rh37  1  0.50000000  0.00000000  0.25000000  1.0
  Rh0+  Rh38  1  0.00000000  0.50000000  0.25000000  1.0
  Rh0+  Rh39  1  0.00000000  0.50000000  0.75000000  1.0
