# generated using pymatgen
data_LaSnRh
_symmetry_space_group_name_H-M   'P 1'
_cell_length_a   7.48740000
_cell_length_b   7.48740000
_cell_length_c   4.22160000
_cell_angle_alpha   90.00000000
_cell_angle_beta   90.00000000
_cell_angle_gamma   120.00000000
_symmetry_Int_Tables_number   1
_chemical_formula_structural   LaSnRh
_chemical_formula_sum   'La3 Sn3 Rh3'
_cell_volume   204.96031651
_cell_formula_units_Z   3
loop_
 _symmetry_equiv_pos_site_id
 _symmetry_equiv_pos_as_xyz
  1  'x, y, z'
loop_
 _atom_type_symbol
 _atom_type_oxidation_number
  La0+  0.0
  Sn0+  0.0
  Rh0+  0.0
loop_
 _atom_site_type_symbol
 _atom_site_label
 _atom_site_symmetry_multiplicity
 _atom_site_fract_x
 _atom_site_fract_y
 _atom_site_fract_z
 _atom_site_occupancy
  La0+  La0  1  0.41623000  0.41623000  0.00000000  1.0
  La0+  La1  1  0.58377000  0.00000000  0.00000000  1.0
  La0+  La2  1  0.00000000  0.58377000  0.00000000  1.0
  Sn0+  Sn3  1  0.75510000  0.75510000  0.50000000  1.0
  Sn0+  Sn4  1  0.24490000  0.00000000  0.50000000  1.0
  Sn0+  Sn5  1  0.00000000  0.24490000  0.50000000  1.0
  Rh0+  Rh6  1  0.33333333  0.66666667  0.50000000  1.0
  Rh0+  Rh7  1  0.66666667  0.33333333  0.50000000  1.0
  Rh0+  Rh8  1  0.00000000  0.00000000  0.00000000  1.0
