# generated using pymatgen
data_La(GePt)2
_symmetry_space_group_name_H-M   'P 1'
_cell_length_a   4.38300000
_cell_length_b   4.38300000
_cell_length_c   9.97900000
_cell_angle_alpha   90.00000000
_cell_angle_beta   90.00000000
_cell_angle_gamma   90.00000000
_symmetry_Int_Tables_number   1
_chemical_formula_structural   La(GePt)2
_chemical_formula_sum   'La2 Ge4 Pt4'
_cell_volume   191.70346553
_cell_formula_units_Z   2
loop_
 _symmetry_equiv_pos_site_id
 _symmetry_equiv_pos_as_xyz
  1  'x, y, z'
loop_
 _atom_type_symbol
 _atom_type_oxidation_number
  La0+  0.0
  Ge0+  0.0
  Pt0+  0.0
loop_
 _atom_site_type_symbol
 _atom_site_label
 _atom_site_symmetry_multiplicity
 _atom_site_fract_x
 _atom_site_fract_y
 _atom_site_fract_z
 _atom_site_occupancy
  La0+  La0  1  0.75000000  0.75000000  0.25356000  1.0
  La0+  La1  1  0.25000000  0.25000000  0.74644000  1.0
  Ge0+  Ge2  1  0.25000000  0.75000000  0.50000000  1.0
  Ge0+  Ge3  1  0.75000000  0.25000000  0.50000000  1.0
  Ge0+  Ge4  1  0.75000000  0.75000000  0.86930000  1.0
  Ge0+  Ge5  1  0.25000000  0.25000000  0.13070000  1.0
  Pt0+  Pt6  1  0.25000000  0.75000000  0.00000000  1.0
  Pt0+  Pt7  1  0.75000000  0.25000000  0.00000000  1.0
  Pt0+  Pt8  1  0.75000000  0.75000000  0.62129000  1.0
  Pt0+  Pt9  1  0.25000000  0.25000000  0.37871000  1.0
