# generated using pymatgen
data_La3(B3Ru4)2
_symmetry_space_group_name_H-M   'P 1'
_cell_length_a   5.56070000
_cell_length_b   9.80350000
_cell_length_c   17.55240000
_cell_angle_alpha   90.00000000
_cell_angle_beta   90.00000000
_cell_angle_gamma   90.00000000
_symmetry_Int_Tables_number   1
_chemical_formula_structural   La3(B3Ru4)2
_chemical_formula_sum   'La12 B24 Ru32'
_cell_volume   956.85719337
_cell_formula_units_Z   4
loop_
 _symmetry_equiv_pos_site_id
 _symmetry_equiv_pos_as_xyz
  1  'x, y, z'
loop_
 _atom_type_symbol
 _atom_type_oxidation_number
  La0+  0.0
  B0+  0.0
  Ru0+  0.0
loop_
 _atom_site_type_symbol
 _atom_site_label
 _atom_site_symmetry_multiplicity
 _atom_site_fract_x
 _atom_site_fract_y
 _atom_site_fract_z
 _atom_site_occupancy
  La0+  La0  1  0.00000000  0.00000000  0.81819000  1.0
  La0+  La1  1  0.00000000  0.00000000  0.18181000  1.0
  La0+  La2  1  0.00000000  0.50000000  0.31819000  1.0
  La0+  La3  1  0.00000000  0.50000000  0.68181000  1.0
  La0+  La4  1  0.50000000  0.00000000  0.31819000  1.0
  La0+  La5  1  0.50000000  0.00000000  0.68181000  1.0
  La0+  La6  1  0.50000000  0.50000000  0.81819000  1.0
  La0+  La7  1  0.50000000  0.50000000  0.18181000  1.0
  La0+  La8  1  0.00000000  0.00000000  0.00000000  1.0
  La0+  La9  1  0.00000000  0.50000000  0.50000000  1.0
  La0+  La10  1  0.50000000  0.00000000  0.50000000  1.0
  La0+  La11  1  0.50000000  0.50000000  0.00000000  1.0
  B0+  B12  1  0.00000000  0.16340000  0.67120000  1.0
  B0+  B13  1  0.00000000  0.83660000  0.32880000  1.0
  B0+  B14  1  0.00000000  0.16340000  0.32880000  1.0
  B0+  B15  1  0.00000000  0.83660000  0.67120000  1.0
  B0+  B16  1  0.00000000  0.66340000  0.17120000  1.0
  B0+  B17  1  0.00000000  0.33660000  0.82880000  1.0
  B0+  B18  1  0.00000000  0.66340000  0.82880000  1.0
  B0+  B19  1  0.00000000  0.33660000  0.17120000  1.0
  B0+  B20  1  0.50000000  0.16340000  0.17120000  1.0
  B0+  B21  1  0.50000000  0.83660000  0.82880000  1.0
  B0+  B22  1  0.50000000  0.16340000  0.82880000  1.0
  B0+  B23  1  0.50000000  0.83660000  0.17120000  1.0
  B0+  B24  1  0.50000000  0.66340000  0.67120000  1.0
  B0+  B25  1  0.50000000  0.33660000  0.32880000  1.0
  B0+  B26  1  0.50000000  0.66340000  0.32880000  1.0
  B0+  B27  1  0.50000000  0.33660000  0.67120000  1.0
  B0+  B28  1  0.00000000  0.33100000  0.00000000  1.0
  B0+  B29  1  0.00000000  0.66900000  0.00000000  1.0
  B0+  B30  1  0.00000000  0.83100000  0.50000000  1.0
  B0+  B31  1  0.00000000  0.16900000  0.50000000  1.0
  B0+  B32  1  0.50000000  0.33100000  0.50000000  1.0
  B0+  B33  1  0.50000000  0.66900000  0.50000000  1.0
  B0+  B34  1  0.50000000  0.83100000  0.00000000  1.0
  B0+  B35  1  0.50000000  0.16900000  0.00000000  1.0
  Ru0+  Ru36  1  0.25000000  0.25000000  0.91407000  1.0
  Ru0+  Ru37  1  0.25000000  0.75000000  0.08593000  1.0
  Ru0+  Ru38  1  0.75000000  0.25000000  0.08593000  1.0
  Ru0+  Ru39  1  0.75000000  0.75000000  0.91407000  1.0
  Ru0+  Ru40  1  0.75000000  0.75000000  0.08593000  1.0
  Ru0+  Ru41  1  0.75000000  0.25000000  0.91407000  1.0
  Ru0+  Ru42  1  0.25000000  0.75000000  0.91407000  1.0
  Ru0+  Ru43  1  0.25000000  0.25000000  0.08593000  1.0
  Ru0+  Ru44  1  0.25000000  0.75000000  0.41407000  1.0
  Ru0+  Ru45  1  0.25000000  0.25000000  0.58593000  1.0
  Ru0+  Ru46  1  0.75000000  0.75000000  0.58593000  1.0
  Ru0+  Ru47  1  0.75000000  0.25000000  0.41407000  1.0
  Ru0+  Ru48  1  0.75000000  0.25000000  0.58593000  1.0
  Ru0+  Ru49  1  0.75000000  0.75000000  0.41407000  1.0
  Ru0+  Ru50  1  0.25000000  0.25000000  0.41407000  1.0
  Ru0+  Ru51  1  0.25000000  0.75000000  0.58593000  1.0
  Ru0+  Ru52  1  0.00000000  0.00000000  0.58632000  1.0
  Ru0+  Ru53  1  0.00000000  0.00000000  0.41368000  1.0
  Ru0+  Ru54  1  0.00000000  0.50000000  0.08632000  1.0
  Ru0+  Ru55  1  0.00000000  0.50000000  0.91368000  1.0
  Ru0+  Ru56  1  0.50000000  0.00000000  0.08632000  1.0
  Ru0+  Ru57  1  0.50000000  0.00000000  0.91368000  1.0
  Ru0+  Ru58  1  0.50000000  0.50000000  0.58632000  1.0
  Ru0+  Ru59  1  0.50000000  0.50000000  0.41368000  1.0
  Ru0+  Ru60  1  0.25000000  0.25000000  0.75000000  1.0
  Ru0+  Ru61  1  0.25000000  0.75000000  0.25000000  1.0
  Ru0+  Ru62  1  0.75000000  0.25000000  0.25000000  1.0
  Ru0+  Ru63  1  0.75000000  0.75000000  0.75000000  1.0
  Ru0+  Ru64  1  0.75000000  0.75000000  0.25000000  1.0
  Ru0+  Ru65  1  0.75000000  0.25000000  0.75000000  1.0
  Ru0+  Ru66  1  0.25000000  0.75000000  0.75000000  1.0
  Ru0+  Ru67  1  0.25000000  0.25000000  0.25000000  1.0
