# generated using pymatgen
data_La2Sb
_symmetry_space_group_name_H-M   'P 1'
_cell_length_a   4.63570000
_cell_length_b   4.63570000
_cell_length_c   18.11950000
_cell_angle_alpha   90.00000000
_cell_angle_beta   90.00000000
_cell_angle_gamma   90.00000000
_symmetry_Int_Tables_number   1
_chemical_formula_structural   La2Sb
_chemical_formula_sum   'La8 Sb4'
_cell_volume   389.38288170
_cell_formula_units_Z   4
loop_
 _symmetry_equiv_pos_site_id
 _symmetry_equiv_pos_as_xyz
  1  'x, y, z'
loop_
 _atom_type_symbol
 _atom_type_oxidation_number
  La1.5+  1.5
  Sb3-  -3.0
loop_
 _atom_site_type_symbol
 _atom_site_label
 _atom_site_symmetry_multiplicity
 _atom_site_fract_x
 _atom_site_fract_y
 _atom_site_fract_z
 _atom_site_occupancy
  La1.5+  La0  1  0.50000000  0.00000000  0.00000000  1.0
  La1.5+  La1  1  0.00000000  0.50000000  0.00000000  1.0
  La1.5+  La2  1  0.00000000  0.50000000  0.50000000  1.0
  La1.5+  La3  1  0.50000000  0.00000000  0.50000000  1.0
  La1.5+  La4  1  0.00000000  0.00000000  0.82046000  1.0
  La1.5+  La5  1  0.00000000  0.00000000  0.17954000  1.0
  La1.5+  La6  1  0.50000000  0.50000000  0.32046000  1.0
  La1.5+  La7  1  0.50000000  0.50000000  0.67954000  1.0
  Sb3-  Sb8  1  0.00000000  0.00000000  0.63760000  1.0
  Sb3-  Sb9  1  0.00000000  0.00000000  0.36240000  1.0
  Sb3-  Sb10  1  0.50000000  0.50000000  0.13760000  1.0
  Sb3-  Sb11  1  0.50000000  0.50000000  0.86240000  1.0
