# generated using pymatgen
data_La3(NiGe)4
_symmetry_space_group_name_H-M   'P 1'
_cell_length_a   4.22340000
_cell_length_b   4.22950000
_cell_length_c   24.15600000
_cell_angle_alpha   90.00000000
_cell_angle_beta   90.00000000
_cell_angle_gamma   90.00000000
_symmetry_Int_Tables_number   1
_chemical_formula_structural   La3(NiGe)4
_chemical_formula_sum   'La6 Ni8 Ge8'
_cell_volume   431.49549497
_cell_formula_units_Z   2
loop_
 _symmetry_equiv_pos_site_id
 _symmetry_equiv_pos_as_xyz
  1  'x, y, z'
loop_
 _atom_type_symbol
 _atom_type_oxidation_number
  La0+  0.0
  Ni0+  0.0
  Ge0+  0.0
loop_
 _atom_site_type_symbol
 _atom_site_label
 _atom_site_symmetry_multiplicity
 _atom_site_fract_x
 _atom_site_fract_y
 _atom_site_fract_z
 _atom_site_occupancy
  La0+  La0  1  0.00000000  0.00000000  0.00000000  1.0
  La0+  La1  1  0.50000000  0.50000000  0.50000000  1.0
  La0+  La2  1  0.50000000  0.00000000  0.65060000  1.0
  La0+  La3  1  0.50000000  0.00000000  0.34940000  1.0
  La0+  La4  1  0.00000000  0.50000000  0.15060000  1.0
  La0+  La5  1  0.00000000  0.50000000  0.84940000  1.0
  Ni0+  Ni6  1  0.00000000  0.00000000  0.75100000  1.0
  Ni0+  Ni7  1  0.00000000  0.00000000  0.24900000  1.0
  Ni0+  Ni8  1  0.50000000  0.50000000  0.25100000  1.0
  Ni0+  Ni9  1  0.50000000  0.50000000  0.74900000  1.0
  Ni0+  Ni10  1  0.50000000  0.00000000  0.90110000  1.0
  Ni0+  Ni11  1  0.50000000  0.00000000  0.09890000  1.0
  Ni0+  Ni12  1  0.00000000  0.50000000  0.40110000  1.0
  Ni0+  Ni13  1  0.00000000  0.50000000  0.59890000  1.0
  Ge0+  Ge14  1  0.00000000  0.00000000  0.55310000  1.0
  Ge0+  Ge15  1  0.00000000  0.00000000  0.44690000  1.0
  Ge0+  Ge16  1  0.50000000  0.50000000  0.05310000  1.0
  Ge0+  Ge17  1  0.50000000  0.50000000  0.94690000  1.0
  Ge0+  Ge18  1  0.50000000  0.00000000  0.80000000  1.0
  Ge0+  Ge19  1  0.50000000  0.00000000  0.20000000  1.0
  Ge0+  Ge20  1  0.00000000  0.50000000  0.30000000  1.0
  Ge0+  Ge21  1  0.00000000  0.50000000  0.70000000  1.0
