# generated using pymatgen
data_U5Ge3
_symmetry_space_group_name_H-M   'P 1'
_cell_length_a   8.58000000
_cell_length_b   8.58000000
_cell_length_c   5.79000000
_cell_angle_alpha   90.00000000
_cell_angle_beta   90.00000000
_cell_angle_gamma   120.00000000
_symmetry_Int_Tables_number   1
_chemical_formula_structural   U5Ge3
_chemical_formula_sum   'U10 Ge6'
_cell_volume   369.13376398
_cell_formula_units_Z   2
loop_
 _symmetry_equiv_pos_site_id
 _symmetry_equiv_pos_as_xyz
  1  'x, y, z'
loop_
 _atom_type_symbol
 _atom_type_oxidation_number
  U0+  0.0
  Ge0+  0.0
loop_
 _atom_site_type_symbol
 _atom_site_label
 _atom_site_symmetry_multiplicity
 _atom_site_fract_x
 _atom_site_fract_y
 _atom_site_fract_z
 _atom_site_occupancy
  U0+  U0  1  0.66666667  0.33333333  0.50000000  1.0
  U0+  U1  1  0.33333333  0.66666667  0.50000000  1.0
  U0+  U2  1  0.33333333  0.66666667  0.00000000  1.0
  U0+  U3  1  0.66666667  0.33333333  0.00000000  1.0
  U0+  U4  1  0.76000000  0.76000000  0.25000000  1.0
  U0+  U5  1  0.24000000  0.00000000  0.25000000  1.0
  U0+  U6  1  0.00000000  0.24000000  0.25000000  1.0
  U0+  U7  1  0.24000000  0.24000000  0.75000000  1.0
  U0+  U8  1  0.76000000  0.00000000  0.75000000  1.0
  U0+  U9  1  0.00000000  0.76000000  0.75000000  1.0
  Ge0+  Ge10  1  0.38000000  0.38000000  0.25000000  1.0
  Ge0+  Ge11  1  0.62000000  0.00000000  0.25000000  1.0
  Ge0+  Ge12  1  0.00000000  0.62000000  0.25000000  1.0
  Ge0+  Ge13  1  0.62000000  0.62000000  0.75000000  1.0
  Ge0+  Ge14  1  0.38000000  0.00000000  0.75000000  1.0
  Ge0+  Ge15  1  0.00000000  0.38000000  0.75000000  1.0
