# generated using pymatgen
data_DyNi2B2C
_symmetry_space_group_name_H-M   'P 1'
_cell_length_a   3.53420000
_cell_length_b   3.53420000
_cell_length_c   10.48780000
_cell_angle_alpha   90.00000000
_cell_angle_beta   90.00000000
_cell_angle_gamma   90.00000000
_symmetry_Int_Tables_number   1
_chemical_formula_structural   DyNi2B2C
_chemical_formula_sum   'Dy2 Ni4 B4 C2'
_cell_volume   130.99859627
_cell_formula_units_Z   2
loop_
 _symmetry_equiv_pos_site_id
 _symmetry_equiv_pos_as_xyz
  1  'x, y, z'
loop_
 _atom_type_symbol
 _atom_type_oxidation_number
  Dy3+  3.0
  Ni2+  2.0
  B2.5-  -2.5
  C2-  -2.0
loop_
 _atom_site_type_symbol
 _atom_site_label
 _atom_site_symmetry_multiplicity
 _atom_site_fract_x
 _atom_site_fract_y
 _atom_site_fract_z
 _atom_site_occupancy
  Dy3+  Dy0  1  0.00000000  0.00000000  0.00000000  1.0
  Dy3+  Dy1  1  0.50000000  0.50000000  0.50000000  1.0
  Ni2+  Ni2  1  0.00000000  0.50000000  0.75000000  1.0
  Ni2+  Ni3  1  0.50000000  0.00000000  0.75000000  1.0
  Ni2+  Ni4  1  0.00000000  0.50000000  0.25000000  1.0
  Ni2+  Ni5  1  0.50000000  0.00000000  0.25000000  1.0
  B2.5-  B6  1  0.00000000  0.00000000  0.64160000  1.0
  B2.5-  B7  1  0.00000000  0.00000000  0.35840000  1.0
  B2.5-  B8  1  0.50000000  0.50000000  0.14160000  1.0
  B2.5-  B9  1  0.50000000  0.50000000  0.85840000  1.0
  C2-  C10  1  0.50000000  0.50000000  0.00000000  1.0
  C2-  C11  1  0.00000000  0.00000000  0.50000000  1.0
