# generated using pymatgen
data_Er2Fe3Si5
_symmetry_space_group_name_H-M   'P 1'
_cell_length_a   10.35830000
_cell_length_b   10.35830000
_cell_length_c   5.07400000
_cell_angle_alpha   90.00000000
_cell_angle_beta   90.00000000
_cell_angle_gamma   90.00000000
_symmetry_Int_Tables_number   1
_chemical_formula_structural   Er2Fe3Si5
_chemical_formula_sum   'Er8 Fe12 Si20'
_cell_volume   544.41167849
_cell_formula_units_Z   4
loop_
 _symmetry_equiv_pos_site_id
 _symmetry_equiv_pos_as_xyz
  1  'x, y, z'
loop_
 _atom_type_symbol
 _atom_type_oxidation_number
  Er0+  0.0
  Fe0+  0.0
  Si0+  0.0
loop_
 _atom_site_type_symbol
 _atom_site_label
 _atom_site_symmetry_multiplicity
 _atom_site_fract_x
 _atom_site_fract_y
 _atom_site_fract_z
 _atom_site_occupancy
  Er0+  Er0  1  0.74000000  0.57100000  0.50000000  1.0
  Er0+  Er1  1  0.26000000  0.42900000  0.50000000  1.0
  Er0+  Er2  1  0.76000000  0.07100000  0.00000000  1.0
  Er0+  Er3  1  0.24000000  0.92900000  0.00000000  1.0
  Er0+  Er4  1  0.57100000  0.26000000  0.50000000  1.0
  Er0+  Er5  1  0.42900000  0.74000000  0.50000000  1.0
  Er0+  Er6  1  0.07100000  0.24000000  0.00000000  1.0
  Er0+  Er7  1  0.92900000  0.76000000  0.00000000  1.0
  Fe0+  Fe8  1  0.00000000  0.50000000  0.25000000  1.0
  Fe0+  Fe9  1  0.50000000  0.00000000  0.75000000  1.0
  Fe0+  Fe10  1  0.50000000  0.00000000  0.25000000  1.0
  Fe0+  Fe11  1  0.00000000  0.50000000  0.75000000  1.0
  Fe0+  Fe12  1  0.85300000  0.87200000  0.50000000  1.0
  Fe0+  Fe13  1  0.14700000  0.12800000  0.50000000  1.0
  Fe0+  Fe14  1  0.64700000  0.37200000  0.00000000  1.0
  Fe0+  Fe15  1  0.35300000  0.62800000  0.00000000  1.0
  Fe0+  Fe16  1  0.87200000  0.14700000  0.50000000  1.0
  Fe0+  Fe17  1  0.12800000  0.85300000  0.50000000  1.0
  Fe0+  Fe18  1  0.37200000  0.35300000  0.00000000  1.0
  Fe0+  Fe19  1  0.62800000  0.64700000  0.00000000  1.0
  Si0+  Si20  1  0.50000000  0.50000000  0.23000000  1.0
  Si0+  Si21  1  0.00000000  0.00000000  0.73000000  1.0
  Si0+  Si22  1  0.50000000  0.50000000  0.77000000  1.0
  Si0+  Si23  1  0.00000000  0.00000000  0.27000000  1.0
  Si0+  Si24  1  0.16900000  0.66900000  0.25000000  1.0
  Si0+  Si25  1  0.83100000  0.33100000  0.25000000  1.0
  Si0+  Si26  1  0.33100000  0.16900000  0.75000000  1.0
  Si0+  Si27  1  0.66900000  0.83100000  0.75000000  1.0
  Si0+  Si28  1  0.66900000  0.83100000  0.25000000  1.0
  Si0+  Si29  1  0.33100000  0.16900000  0.25000000  1.0
  Si0+  Si30  1  0.16900000  0.66900000  0.75000000  1.0
  Si0+  Si31  1  0.83100000  0.33100000  0.75000000  1.0
  Si0+  Si32  1  0.97300000  0.67100000  0.50000000  1.0
  Si0+  Si33  1  0.02700000  0.32900000  0.50000000  1.0
  Si0+  Si34  1  0.52700000  0.17100000  0.00000000  1.0
  Si0+  Si35  1  0.47300000  0.82900000  0.00000000  1.0
  Si0+  Si36  1  0.67100000  0.02700000  0.50000000  1.0
  Si0+  Si37  1  0.32900000  0.97300000  0.50000000  1.0
  Si0+  Si38  1  0.17100000  0.47300000  0.00000000  1.0
  Si0+  Si39  1  0.82900000  0.52700000  0.00000000  1.0
