# generated using pymatgen
data_UBe13
_symmetry_space_group_name_H-M   'P 1'
_cell_length_a   10.24887000
_cell_length_b   10.24887000
_cell_length_c   10.24887000
_cell_angle_alpha   90.00000000
_cell_angle_beta   90.00000000
_cell_angle_gamma   90.00000000
_symmetry_Int_Tables_number   1
_chemical_formula_structural   UBe13
_chemical_formula_sum   'U8 Be104'
_cell_volume   1076.53450239
_cell_formula_units_Z   8
loop_
 _symmetry_equiv_pos_site_id
 _symmetry_equiv_pos_as_xyz
  1  'x, y, z'
loop_
 _atom_type_symbol
 _atom_type_oxidation_number
  U0+  0.0
  Be0+  0.0
loop_
 _atom_site_type_symbol
 _atom_site_label
 _atom_site_symmetry_multiplicity
 _atom_site_fract_x
 _atom_site_fract_y
 _atom_site_fract_z
 _atom_site_occupancy
  U0+  U0  1  0.25000000  0.25000000  0.25000000  1.0
  U0+  U1  1  0.75000000  0.25000000  0.75000000  1.0
  U0+  U2  1  0.75000000  0.75000000  0.25000000  1.0
  U0+  U3  1  0.25000000  0.75000000  0.75000000  1.0
  U0+  U4  1  0.75000000  0.25000000  0.25000000  1.0
  U0+  U5  1  0.25000000  0.25000000  0.75000000  1.0
  U0+  U6  1  0.25000000  0.75000000  0.25000000  1.0
  U0+  U7  1  0.75000000  0.75000000  0.75000000  1.0
  Be0+  Be8  1  0.50000000  0.00000000  0.00000000  1.0
  Be0+  Be9  1  0.00000000  0.00000000  0.00000000  1.0
  Be0+  Be10  1  0.00000000  0.50000000  0.00000000  1.0
  Be0+  Be11  1  0.00000000  0.00000000  0.50000000  1.0
  Be0+  Be12  1  0.50000000  0.50000000  0.50000000  1.0
  Be0+  Be13  1  0.00000000  0.50000000  0.50000000  1.0
  Be0+  Be14  1  0.50000000  0.00000000  0.50000000  1.0
  Be0+  Be15  1  0.50000000  0.50000000  0.00000000  1.0
  Be0+  Be16  1  0.32370000  0.00000000  0.11500000  1.0
  Be0+  Be17  1  0.67630000  0.00000000  0.88500000  1.0
  Be0+  Be18  1  0.67630000  0.00000000  0.11500000  1.0
  Be0+  Be19  1  0.32370000  0.00000000  0.88500000  1.0
  Be0+  Be20  1  0.88500000  0.00000000  0.17630000  1.0
  Be0+  Be21  1  0.11500000  0.00000000  0.82370000  1.0
  Be0+  Be22  1  0.11500000  0.00000000  0.17630000  1.0
  Be0+  Be23  1  0.88500000  0.00000000  0.82370000  1.0
  Be0+  Be24  1  0.11500000  0.32370000  0.00000000  1.0
  Be0+  Be25  1  0.88500000  0.67630000  0.00000000  1.0
  Be0+  Be26  1  0.11500000  0.67630000  0.00000000  1.0
  Be0+  Be27  1  0.88500000  0.32370000  0.00000000  1.0
  Be0+  Be28  1  0.17630000  0.88500000  0.00000000  1.0
  Be0+  Be29  1  0.82370000  0.11500000  0.00000000  1.0
  Be0+  Be30  1  0.17630000  0.11500000  0.00000000  1.0
  Be0+  Be31  1  0.82370000  0.88500000  0.00000000  1.0
  Be0+  Be32  1  0.00000000  0.11500000  0.32370000  1.0
  Be0+  Be33  1  0.00000000  0.88500000  0.67630000  1.0
  Be0+  Be34  1  0.00000000  0.11500000  0.67630000  1.0
  Be0+  Be35  1  0.00000000  0.88500000  0.32370000  1.0
  Be0+  Be36  1  0.00000000  0.17630000  0.88500000  1.0
  Be0+  Be37  1  0.00000000  0.82370000  0.11500000  1.0
  Be0+  Be38  1  0.00000000  0.17630000  0.11500000  1.0
  Be0+  Be39  1  0.00000000  0.82370000  0.88500000  1.0
  Be0+  Be40  1  0.32370000  0.50000000  0.61500000  1.0
  Be0+  Be41  1  0.67630000  0.50000000  0.38500000  1.0
  Be0+  Be42  1  0.67630000  0.50000000  0.61500000  1.0
  Be0+  Be43  1  0.32370000  0.50000000  0.38500000  1.0
  Be0+  Be44  1  0.88500000  0.50000000  0.67630000  1.0
  Be0+  Be45  1  0.11500000  0.50000000  0.32370000  1.0
  Be0+  Be46  1  0.11500000  0.50000000  0.67630000  1.0
  Be0+  Be47  1  0.88500000  0.50000000  0.32370000  1.0
  Be0+  Be48  1  0.11500000  0.82370000  0.50000000  1.0
  Be0+  Be49  1  0.88500000  0.17630000  0.50000000  1.0
  Be0+  Be50  1  0.11500000  0.17630000  0.50000000  1.0
  Be0+  Be51  1  0.88500000  0.82370000  0.50000000  1.0
  Be0+  Be52  1  0.17630000  0.38500000  0.50000000  1.0
  Be0+  Be53  1  0.82370000  0.61500000  0.50000000  1.0
  Be0+  Be54  1  0.17630000  0.61500000  0.50000000  1.0
  Be0+  Be55  1  0.82370000  0.38500000  0.50000000  1.0
  Be0+  Be56  1  0.00000000  0.61500000  0.82370000  1.0
  Be0+  Be57  1  0.00000000  0.38500000  0.17630000  1.0
  Be0+  Be58  1  0.00000000  0.61500000  0.17630000  1.0
  Be0+  Be59  1  0.00000000  0.38500000  0.82370000  1.0
  Be0+  Be60  1  0.00000000  0.67630000  0.38500000  1.0
  Be0+  Be61  1  0.00000000  0.32370000  0.61500000  1.0
  Be0+  Be62  1  0.00000000  0.67630000  0.61500000  1.0
  Be0+  Be63  1  0.00000000  0.32370000  0.38500000  1.0
  Be0+  Be64  1  0.82370000  0.00000000  0.61500000  1.0
  Be0+  Be65  1  0.17630000  0.00000000  0.38500000  1.0
  Be0+  Be66  1  0.17630000  0.00000000  0.61500000  1.0
  Be0+  Be67  1  0.82370000  0.00000000  0.38500000  1.0
  Be0+  Be68  1  0.38500000  0.00000000  0.67630000  1.0
  Be0+  Be69  1  0.61500000  0.00000000  0.32370000  1.0
  Be0+  Be70  1  0.61500000  0.00000000  0.67630000  1.0
  Be0+  Be71  1  0.38500000  0.00000000  0.32370000  1.0
  Be0+  Be72  1  0.61500000  0.32370000  0.50000000  1.0
  Be0+  Be73  1  0.38500000  0.67630000  0.50000000  1.0
  Be0+  Be74  1  0.61500000  0.67630000  0.50000000  1.0
  Be0+  Be75  1  0.38500000  0.32370000  0.50000000  1.0
  Be0+  Be76  1  0.67630000  0.88500000  0.50000000  1.0
  Be0+  Be77  1  0.32370000  0.11500000  0.50000000  1.0
  Be0+  Be78  1  0.67630000  0.11500000  0.50000000  1.0
  Be0+  Be79  1  0.32370000  0.88500000  0.50000000  1.0
  Be0+  Be80  1  0.50000000  0.11500000  0.82370000  1.0
  Be0+  Be81  1  0.50000000  0.88500000  0.17630000  1.0
  Be0+  Be82  1  0.50000000  0.11500000  0.17630000  1.0
  Be0+  Be83  1  0.50000000  0.88500000  0.82370000  1.0
  Be0+  Be84  1  0.50000000  0.17630000  0.38500000  1.0
  Be0+  Be85  1  0.50000000  0.82370000  0.61500000  1.0
  Be0+  Be86  1  0.50000000  0.17630000  0.61500000  1.0
  Be0+  Be87  1  0.50000000  0.82370000  0.38500000  1.0
  Be0+  Be88  1  0.82370000  0.50000000  0.11500000  1.0
  Be0+  Be89  1  0.17630000  0.50000000  0.88500000  1.0
  Be0+  Be90  1  0.17630000  0.50000000  0.11500000  1.0
  Be0+  Be91  1  0.82370000  0.50000000  0.88500000  1.0
  Be0+  Be92  1  0.38500000  0.50000000  0.17630000  1.0
  Be0+  Be93  1  0.61500000  0.50000000  0.82370000  1.0
  Be0+  Be94  1  0.61500000  0.50000000  0.17630000  1.0
  Be0+  Be95  1  0.38500000  0.50000000  0.82370000  1.0
  Be0+  Be96  1  0.61500000  0.82370000  0.00000000  1.0
  Be0+  Be97  1  0.38500000  0.17630000  0.00000000  1.0
  Be0+  Be98  1  0.61500000  0.17630000  0.00000000  1.0
  Be0+  Be99  1  0.38500000  0.82370000  0.00000000  1.0
  Be0+  Be100  1  0.67630000  0.38500000  0.00000000  1.0
  Be0+  Be101  1  0.32370000  0.61500000  0.00000000  1.0
  Be0+  Be102  1  0.67630000  0.61500000  0.00000000  1.0
  Be0+  Be103  1  0.32370000  0.38500000  0.00000000  1.0
  Be0+  Be104  1  0.50000000  0.61500000  0.32370000  1.0
  Be0+  Be105  1  0.50000000  0.38500000  0.67630000  1.0
  Be0+  Be106  1  0.50000000  0.61500000  0.67630000  1.0
  Be0+  Be107  1  0.50000000  0.38500000  0.32370000  1.0
  Be0+  Be108  1  0.50000000  0.67630000  0.88500000  1.0
  Be0+  Be109  1  0.50000000  0.32370000  0.11500000  1.0
  Be0+  Be110  1  0.50000000  0.67630000  0.11500000  1.0
  Be0+  Be111  1  0.50000000  0.32370000  0.88500000  1.0
