# generated using pymatgen
data_LuGe2
_symmetry_space_group_name_H-M   'P 1'
_cell_length_a   3.98700000
_cell_length_b   15.55800000
_cell_length_c   3.85100000
_cell_angle_alpha   90.00000000
_cell_angle_beta   90.00000000
_cell_angle_gamma   90.00000000
_symmetry_Int_Tables_number   1
_chemical_formula_structural   LuGe2
_chemical_formula_sum   'Lu4 Ge8'
_cell_volume   238.87655185
_cell_formula_units_Z   4
loop_
 _symmetry_equiv_pos_site_id
 _symmetry_equiv_pos_as_xyz
  1  'x, y, z'
loop_
 _atom_type_symbol
 _atom_type_oxidation_number
  Lu0+  0.0
  Ge0+  0.0
loop_
 _atom_site_type_symbol
 _atom_site_label
 _atom_site_symmetry_multiplicity
 _atom_site_fract_x
 _atom_site_fract_y
 _atom_site_fract_z
 _atom_site_occupancy
  Lu0+  Lu0  1  0.00000000  0.10400000  0.25000000  1.0
  Lu0+  Lu1  1  0.00000000  0.89600000  0.75000000  1.0
  Lu0+  Lu2  1  0.50000000  0.60400000  0.25000000  1.0
  Lu0+  Lu3  1  0.50000000  0.39600000  0.75000000  1.0
  Ge0+  Ge4  1  0.00000000  0.75000000  0.25000000  1.0
  Ge0+  Ge5  1  0.00000000  0.25000000  0.75000000  1.0
  Ge0+  Ge6  1  0.50000000  0.25000000  0.25000000  1.0
  Ge0+  Ge7  1  0.50000000  0.75000000  0.75000000  1.0
  Ge0+  Ge8  1  0.00000000  0.44700000  0.25000000  1.0
  Ge0+  Ge9  1  0.00000000  0.55300000  0.75000000  1.0
  Ge0+  Ge10  1  0.50000000  0.94700000  0.25000000  1.0
  Ge0+  Ge11  1  0.50000000  0.05300000  0.75000000  1.0
