# generated using pymatgen
data_La3Sn13Ir4
_symmetry_space_group_name_H-M   'P 1'
_cell_length_a   9.74900000
_cell_length_b   9.74900000
_cell_length_c   9.74900000
_cell_angle_alpha   90.00000000
_cell_angle_beta   90.00000000
_cell_angle_gamma   90.00000000
_symmetry_Int_Tables_number   1
_chemical_formula_structural   La3Sn13Ir4
_chemical_formula_sum   'La6 Sn26 Ir8'
_cell_volume   926.57421675
_cell_formula_units_Z   2
loop_
 _symmetry_equiv_pos_site_id
 _symmetry_equiv_pos_as_xyz
  1  'x, y, z'
loop_
 _atom_type_symbol
 _atom_type_oxidation_number
  La0+  0.0
  Sn0+  0.0
  Ir0+  0.0
loop_
 _atom_site_type_symbol
 _atom_site_label
 _atom_site_symmetry_multiplicity
 _atom_site_fract_x
 _atom_site_fract_y
 _atom_site_fract_z
 _atom_site_occupancy
  La0+  La0  1  0.00000000  0.50000000  0.75000000  1.0
  La0+  La1  1  0.50000000  0.25000000  0.00000000  1.0
  La0+  La2  1  0.75000000  0.00000000  0.50000000  1.0
  La0+  La3  1  0.00000000  0.50000000  0.25000000  1.0
  La0+  La4  1  0.50000000  0.75000000  0.00000000  1.0
  La0+  La5  1  0.25000000  0.00000000  0.50000000  1.0
  Sn0+  Sn6  1  0.50000000  0.50000000  0.50000000  1.0
  Sn0+  Sn7  1  0.00000000  0.00000000  0.00000000  1.0
  Sn0+  Sn8  1  0.80800000  0.34700000  0.50000000  1.0
  Sn0+  Sn9  1  0.65300000  0.50000000  0.80800000  1.0
  Sn0+  Sn10  1  0.50000000  0.19200000  0.65300000  1.0
  Sn0+  Sn11  1  0.19200000  0.65300000  0.50000000  1.0
  Sn0+  Sn12  1  0.34700000  0.50000000  0.19200000  1.0
  Sn0+  Sn13  1  0.50000000  0.80800000  0.34700000  1.0
  Sn0+  Sn14  1  0.80800000  0.65300000  0.50000000  1.0
  Sn0+  Sn15  1  0.65300000  0.50000000  0.19200000  1.0
  Sn0+  Sn16  1  0.19200000  0.34700000  0.50000000  1.0
  Sn0+  Sn17  1  0.34700000  0.50000000  0.80800000  1.0
  Sn0+  Sn18  1  0.50000000  0.80800000  0.65300000  1.0
  Sn0+  Sn19  1  0.50000000  0.19200000  0.34700000  1.0
  Sn0+  Sn20  1  0.30800000  0.00000000  0.84700000  1.0
  Sn0+  Sn21  1  0.15300000  0.30800000  0.00000000  1.0
  Sn0+  Sn22  1  0.00000000  0.15300000  0.69200000  1.0
  Sn0+  Sn23  1  0.69200000  0.00000000  0.15300000  1.0
  Sn0+  Sn24  1  0.84700000  0.69200000  0.00000000  1.0
  Sn0+  Sn25  1  0.00000000  0.84700000  0.30800000  1.0
  Sn0+  Sn26  1  0.30800000  0.00000000  0.15300000  1.0
  Sn0+  Sn27  1  0.15300000  0.69200000  0.00000000  1.0
  Sn0+  Sn28  1  0.69200000  0.00000000  0.84700000  1.0
  Sn0+  Sn29  1  0.84700000  0.30800000  0.00000000  1.0
  Sn0+  Sn30  1  0.00000000  0.15300000  0.30800000  1.0
  Sn0+  Sn31  1  0.00000000  0.84700000  0.69200000  1.0
  Ir0+  Ir32  1  0.75000000  0.25000000  0.75000000  1.0
  Ir0+  Ir33  1  0.25000000  0.75000000  0.25000000  1.0
  Ir0+  Ir34  1  0.75000000  0.75000000  0.25000000  1.0
  Ir0+  Ir35  1  0.25000000  0.25000000  0.75000000  1.0
  Ir0+  Ir36  1  0.25000000  0.75000000  0.75000000  1.0
  Ir0+  Ir37  1  0.75000000  0.25000000  0.25000000  1.0
  Ir0+  Ir38  1  0.25000000  0.25000000  0.25000000  1.0
  Ir0+  Ir39  1  0.75000000  0.75000000  0.75000000  1.0
