# generated using pymatgen
data_CeSi2Pt
_symmetry_space_group_name_H-M   'P 1'
_cell_length_a   4.29000000
_cell_length_b   16.79000000
_cell_length_c   4.24000000
_cell_angle_alpha   90.00000000
_cell_angle_beta   90.00000000
_cell_angle_gamma   90.00000000
_symmetry_Int_Tables_number   1
_chemical_formula_structural   CeSi2Pt
_chemical_formula_sum   'Ce4 Si8 Pt4'
_cell_volume   305.40338400
_cell_formula_units_Z   4
loop_
 _symmetry_equiv_pos_site_id
 _symmetry_equiv_pos_as_xyz
  1  'x, y, z'
loop_
 _atom_type_symbol
 _atom_type_oxidation_number
  Ce0+  0.0
  Si0+  0.0
  Pt0+  0.0
loop_
 _atom_site_type_symbol
 _atom_site_label
 _atom_site_symmetry_multiplicity
 _atom_site_fract_x
 _atom_site_fract_y
 _atom_site_fract_z
 _atom_site_occupancy
  Ce0+  Ce0  1  0.00000000  0.10700000  0.25000000  1.0
  Ce0+  Ce1  1  0.00000000  0.89300000  0.75000000  1.0
  Ce0+  Ce2  1  0.50000000  0.60700000  0.25000000  1.0
  Ce0+  Ce3  1  0.50000000  0.39300000  0.75000000  1.0
  Si0+  Si4  1  0.00000000  0.45700000  0.25000000  1.0
  Si0+  Si5  1  0.00000000  0.54300000  0.75000000  1.0
  Si0+  Si6  1  0.50000000  0.95700000  0.25000000  1.0
  Si0+  Si7  1  0.50000000  0.04300000  0.75000000  1.0
  Si0+  Si8  1  0.00000000  0.74900000  0.25000000  1.0
  Si0+  Si9  1  0.00000000  0.25100000  0.75000000  1.0
  Si0+  Si10  1  0.50000000  0.24900000  0.25000000  1.0
  Si0+  Si11  1  0.50000000  0.75100000  0.75000000  1.0
  Pt0+  Pt12  1  0.00000000  0.31600000  0.25000000  1.0
  Pt0+  Pt13  1  0.00000000  0.68400000  0.75000000  1.0
  Pt0+  Pt14  1  0.50000000  0.81600000  0.25000000  1.0
  Pt0+  Pt15  1  0.50000000  0.18400000  0.75000000  1.0
