# generated using pymatgen
data_La3Co
_symmetry_space_group_name_H-M   'P 1'
_cell_length_a   7.28200000
_cell_length_b   10.02000000
_cell_length_c   6.59400000
_cell_angle_alpha   90.00000000
_cell_angle_beta   90.00000000
_cell_angle_gamma   90.00000000
_symmetry_Int_Tables_number   1
_chemical_formula_structural   La3Co
_chemical_formula_sum   'La12 Co4'
_cell_volume   481.13543016
_cell_formula_units_Z   4
loop_
 _symmetry_equiv_pos_site_id
 _symmetry_equiv_pos_as_xyz
  1  'x, y, z'
loop_
 _atom_type_symbol
 _atom_type_oxidation_number
  La0+  0.0
  Co0+  0.0
loop_
 _atom_site_type_symbol
 _atom_site_label
 _atom_site_symmetry_multiplicity
 _atom_site_fract_x
 _atom_site_fract_y
 _atom_site_fract_z
 _atom_site_occupancy
  La0+  La0  1  0.66900000  0.06900000  0.32700000  1.0
  La0+  La1  1  0.16900000  0.43100000  0.17300000  1.0
  La0+  La2  1  0.33100000  0.56900000  0.67300000  1.0
  La0+  La3  1  0.83100000  0.93100000  0.82700000  1.0
  La0+  La4  1  0.33100000  0.93100000  0.67300000  1.0
  La0+  La5  1  0.83100000  0.56900000  0.82700000  1.0
  La0+  La6  1  0.66900000  0.43100000  0.32700000  1.0
  La0+  La7  1  0.16900000  0.06900000  0.17300000  1.0
  La0+  La8  1  0.54600000  0.25000000  0.85700000  1.0
  La0+  La9  1  0.04600000  0.25000000  0.64300000  1.0
  La0+  La10  1  0.45400000  0.75000000  0.14300000  1.0
  La0+  La11  1  0.95400000  0.75000000  0.35700000  1.0
  Co0+  Co12  1  0.88300000  0.25000000  0.06000000  1.0
  Co0+  Co13  1  0.38300000  0.25000000  0.44000000  1.0
  Co0+  Co14  1  0.11700000  0.75000000  0.94000000  1.0
  Co0+  Co15  1  0.61700000  0.75000000  0.56000000  1.0
