# generated using pymatgen
data_La(SiRh)2
_symmetry_space_group_name_H-M   'P 1'
_cell_length_a   4.09200000
_cell_length_b   4.09200000
_cell_length_c   10.20000000
_cell_angle_alpha   90.00000000
_cell_angle_beta   90.00000000
_cell_angle_gamma   90.00000000
_symmetry_Int_Tables_number   1
_chemical_formula_structural   La(SiRh)2
_chemical_formula_sum   'La2 Si4 Rh4'
_cell_volume   170.79353280
_cell_formula_units_Z   2
loop_
 _symmetry_equiv_pos_site_id
 _symmetry_equiv_pos_as_xyz
  1  'x, y, z'
loop_
 _atom_type_symbol
 _atom_type_oxidation_number
  La0+  0.0
  Si0+  0.0
  Rh0+  0.0
loop_
 _atom_site_type_symbol
 _atom_site_label
 _atom_site_symmetry_multiplicity
 _atom_site_fract_x
 _atom_site_fract_y
 _atom_site_fract_z
 _atom_site_occupancy
  La0+  La0  1  0.00000000  0.00000000  0.00000000  1.0
  La0+  La1  1  0.50000000  0.50000000  0.50000000  1.0
  Si0+  Si2  1  0.00000000  0.00000000  0.63000000  1.0
  Si0+  Si3  1  0.00000000  0.00000000  0.37000000  1.0
  Si0+  Si4  1  0.50000000  0.50000000  0.13000000  1.0
  Si0+  Si5  1  0.50000000  0.50000000  0.87000000  1.0
  Rh0+  Rh6  1  0.50000000  0.00000000  0.75000000  1.0
  Rh0+  Rh7  1  0.00000000  0.50000000  0.75000000  1.0
  Rh0+  Rh8  1  0.50000000  0.00000000  0.25000000  1.0
  Rh0+  Rh9  1  0.00000000  0.50000000  0.25000000  1.0
