# generated using pymatgen
data_LaSi3Rh
_symmetry_space_group_name_H-M   'P 1'
_cell_length_a   4.27200000
_cell_length_b   4.27200000
_cell_length_c   9.83000000
_cell_angle_alpha   90.00000000
_cell_angle_beta   90.00000000
_cell_angle_gamma   90.00000000
_symmetry_Int_Tables_number   1
_chemical_formula_structural   LaSi3Rh
_chemical_formula_sum   'La2 Si6 Rh2'
_cell_volume   179.39734272
_cell_formula_units_Z   2
loop_
 _symmetry_equiv_pos_site_id
 _symmetry_equiv_pos_as_xyz
  1  'x, y, z'
loop_
 _atom_type_symbol
 _atom_type_oxidation_number
  La0+  0.0
  Si0+  0.0
  Rh0+  0.0
loop_
 _atom_site_type_symbol
 _atom_site_label
 _atom_site_symmetry_multiplicity
 _atom_site_fract_x
 _atom_site_fract_y
 _atom_site_fract_z
 _atom_site_occupancy
  La0+  La0  1  0.00000000  0.00000000  0.00000000  1.0
  La0+  La1  1  0.50000000  0.50000000  0.50000000  1.0
  Si0+  Si2  1  0.00000000  0.00000000  0.41500000  1.0
  Si0+  Si3  1  0.50000000  0.50000000  0.91500000  1.0
  Si0+  Si4  1  0.50000000  0.00000000  0.26000000  1.0
  Si0+  Si5  1  0.00000000  0.50000000  0.26000000  1.0
  Si0+  Si6  1  0.00000000  0.50000000  0.76000000  1.0
  Si0+  Si7  1  0.50000000  0.00000000  0.76000000  1.0
  Rh0+  Rh8  1  0.00000000  0.00000000  0.65500000  1.0
  Rh0+  Rh9  1  0.50000000  0.50000000  0.15500000  1.0
