# generated using pymatgen
data_Th2Al
_symmetry_space_group_name_H-M   'P 1'
_cell_length_a   7.61400000
_cell_length_b   7.61400000
_cell_length_c   5.85700000
_cell_angle_alpha   90.00000000
_cell_angle_beta   90.00000000
_cell_angle_gamma   90.00000000
_symmetry_Int_Tables_number   1
_chemical_formula_structural   Th2Al
_chemical_formula_sum   'Th8 Al4'
_cell_volume   339.54783757
_cell_formula_units_Z   4
loop_
 _symmetry_equiv_pos_site_id
 _symmetry_equiv_pos_as_xyz
  1  'x, y, z'
loop_
 _atom_type_symbol
 _atom_type_oxidation_number
  Th0+  0.0
  Al0+  0.0
loop_
 _atom_site_type_symbol
 _atom_site_label
 _atom_site_symmetry_multiplicity
 _atom_site_fract_x
 _atom_site_fract_y
 _atom_site_fract_z
 _atom_site_occupancy
  Th0+  Th0  1  0.65800000  0.15800000  0.50000000  1.0
  Th0+  Th1  1  0.34200000  0.84200000  0.50000000  1.0
  Th0+  Th2  1  0.34200000  0.15800000  0.00000000  1.0
  Th0+  Th3  1  0.65800000  0.84200000  0.00000000  1.0
  Th0+  Th4  1  0.15800000  0.34200000  0.50000000  1.0
  Th0+  Th5  1  0.84200000  0.65800000  0.50000000  1.0
  Th0+  Th6  1  0.15800000  0.65800000  0.00000000  1.0
  Th0+  Th7  1  0.84200000  0.34200000  0.00000000  1.0
  Al0+  Al8  1  0.00000000  0.00000000  0.25000000  1.0
  Al0+  Al9  1  0.00000000  0.00000000  0.75000000  1.0
  Al0+  Al10  1  0.50000000  0.50000000  0.75000000  1.0
  Al0+  Al11  1  0.50000000  0.50000000  0.25000000  1.0
