# generated using pymatgen
data_Th3Al2
_symmetry_space_group_name_H-M   'P 1'
_cell_length_a   8.12500000
_cell_length_b   8.12500000
_cell_length_c   4.21700000
_cell_angle_alpha   90.00000000
_cell_angle_beta   90.00000000
_cell_angle_gamma   90.00000000
_symmetry_Int_Tables_number   1
_chemical_formula_structural   Th3Al2
_chemical_formula_sum   'Th6 Al4'
_cell_volume   278.38789062
_cell_formula_units_Z   2
loop_
 _symmetry_equiv_pos_site_id
 _symmetry_equiv_pos_as_xyz
  1  'x, y, z'
loop_
 _atom_type_symbol
 _atom_type_oxidation_number
  Th0+  0.0
  Al0+  0.0
loop_
 _atom_site_type_symbol
 _atom_site_label
 _atom_site_symmetry_multiplicity
 _atom_site_fract_x
 _atom_site_fract_y
 _atom_site_fract_z
 _atom_site_occupancy
  Th0+  Th0  1  0.50000000  0.50000000  0.00000000  1.0
  Th0+  Th1  1  0.00000000  0.00000000  0.00000000  1.0
  Th0+  Th2  1  0.17900000  0.67900000  0.50000000  1.0
  Th0+  Th3  1  0.82100000  0.32100000  0.50000000  1.0
  Th0+  Th4  1  0.32100000  0.17900000  0.50000000  1.0
  Th0+  Th5  1  0.67900000  0.82100000  0.50000000  1.0
  Al0+  Al6  1  0.39000000  0.89000000  0.00000000  1.0
  Al0+  Al7  1  0.61000000  0.11000000  0.00000000  1.0
  Al0+  Al8  1  0.11000000  0.39000000  0.00000000  1.0
  Al0+  Al9  1  0.89000000  0.61000000  0.00000000  1.0
