# generated using pymatgen
data_Pr(As3Ru)4
_symmetry_space_group_name_H-M   'P 1'
_cell_length_a   8.49630000
_cell_length_b   8.49630000
_cell_length_c   8.49630000
_cell_angle_alpha   90.00000000
_cell_angle_beta   90.00000000
_cell_angle_gamma   90.00000000
_symmetry_Int_Tables_number   1
_chemical_formula_structural   Pr(As3Ru)4
_chemical_formula_sum   'Pr2 As24 Ru8'
_cell_volume   613.32337404
_cell_formula_units_Z   2
loop_
 _symmetry_equiv_pos_site_id
 _symmetry_equiv_pos_as_xyz
  1  'x, y, z'
loop_
 _atom_type_symbol
 _atom_type_oxidation_number
  Pr3+  3.0
  As1.25-  -1.25
  Ru3+  3.0
loop_
 _atom_site_type_symbol
 _atom_site_label
 _atom_site_symmetry_multiplicity
 _atom_site_fract_x
 _atom_site_fract_y
 _atom_site_fract_z
 _atom_site_occupancy
  Pr3+  Pr0  1  0.00000000  0.00000000  0.00000000  1.0
  Pr3+  Pr1  1  0.50000000  0.50000000  0.50000000  1.0
  As1.25-  As2  1  0.65400000  0.00000000  0.15500000  1.0
  As1.25-  As3  1  0.34600000  0.00000000  0.84500000  1.0
  As1.25-  As4  1  0.34600000  0.00000000  0.15500000  1.0
  As1.25-  As5  1  0.65400000  0.00000000  0.84500000  1.0
  As1.25-  As6  1  0.15500000  0.65400000  0.00000000  1.0
  As1.25-  As7  1  0.84500000  0.34600000  0.00000000  1.0
  As1.25-  As8  1  0.15500000  0.34600000  0.00000000  1.0
  As1.25-  As9  1  0.84500000  0.65400000  0.00000000  1.0
  As1.25-  As10  1  0.00000000  0.15500000  0.65400000  1.0
  As1.25-  As11  1  0.00000000  0.84500000  0.34600000  1.0
  As1.25-  As12  1  0.00000000  0.15500000  0.34600000  1.0
  As1.25-  As13  1  0.00000000  0.84500000  0.65400000  1.0
  As1.25-  As14  1  0.15400000  0.50000000  0.65500000  1.0
  As1.25-  As15  1  0.84600000  0.50000000  0.34500000  1.0
  As1.25-  As16  1  0.84600000  0.50000000  0.65500000  1.0
  As1.25-  As17  1  0.15400000  0.50000000  0.34500000  1.0
  As1.25-  As18  1  0.65500000  0.15400000  0.50000000  1.0
  As1.25-  As19  1  0.34500000  0.84600000  0.50000000  1.0
  As1.25-  As20  1  0.65500000  0.84600000  0.50000000  1.0
  As1.25-  As21  1  0.34500000  0.15400000  0.50000000  1.0
  As1.25-  As22  1  0.50000000  0.65500000  0.15400000  1.0
  As1.25-  As23  1  0.50000000  0.34500000  0.84600000  1.0
  As1.25-  As24  1  0.50000000  0.65500000  0.84600000  1.0
  As1.25-  As25  1  0.50000000  0.34500000  0.15400000  1.0
  Ru3+  Ru26  1  0.75000000  0.25000000  0.25000000  1.0
  Ru3+  Ru27  1  0.25000000  0.25000000  0.75000000  1.0
  Ru3+  Ru28  1  0.25000000  0.75000000  0.25000000  1.0
  Ru3+  Ru29  1  0.75000000  0.75000000  0.75000000  1.0
  Ru3+  Ru30  1  0.25000000  0.75000000  0.75000000  1.0
  Ru3+  Ru31  1  0.75000000  0.75000000  0.25000000  1.0
  Ru3+  Ru32  1  0.75000000  0.25000000  0.75000000  1.0
  Ru3+  Ru33  1  0.25000000  0.25000000  0.25000000  1.0
