# generated using pymatgen
data_Lu(BC)2
_symmetry_space_group_name_H-M   'P 1'
_cell_length_a   3.76200000
_cell_length_b   3.76200000
_cell_length_c   6.89000000
_cell_angle_alpha   90.00000000
_cell_angle_beta   90.00000000
_cell_angle_gamma   90.00000000
_symmetry_Int_Tables_number   1
_chemical_formula_structural   Lu(BC)2
_chemical_formula_sum   'Lu2 B4 C4'
_cell_volume   97.51171716
_cell_formula_units_Z   2
loop_
 _symmetry_equiv_pos_site_id
 _symmetry_equiv_pos_as_xyz
  1  'x, y, z'
loop_
 _atom_type_symbol
 _atom_type_oxidation_number
  Lu0+  0.0
  B0+  0.0
  C0+  0.0
loop_
 _atom_site_type_symbol
 _atom_site_label
 _atom_site_symmetry_multiplicity
 _atom_site_fract_x
 _atom_site_fract_y
 _atom_site_fract_z
 _atom_site_occupancy
  Lu0+  Lu0  1  0.00000000  0.00000000  0.75000000  1.0
  Lu0+  Lu1  1  0.00000000  0.00000000  0.25000000  1.0
  B0+  B2  1  0.23200000  0.50000000  0.00000000  1.0
  B0+  B3  1  0.76800000  0.50000000  0.00000000  1.0
  B0+  B4  1  0.50000000  0.23200000  0.50000000  1.0
  B0+  B5  1  0.50000000  0.76800000  0.50000000  1.0
  C0+  C6  1  0.50000000  0.17300000  0.00000000  1.0
  C0+  C7  1  0.50000000  0.82700000  0.00000000  1.0
  C0+  C8  1  0.82700000  0.50000000  0.50000000  1.0
  C0+  C9  1  0.17300000  0.50000000  0.50000000  1.0
