# generated using pymatgen
data_LaB2Rh3
_symmetry_space_group_name_H-M   'P 1'
_cell_length_a   5.48000000
_cell_length_b   5.48000000
_cell_length_c   3.13700000
_cell_angle_alpha   90.00000000
_cell_angle_beta   90.00000000
_cell_angle_gamma   120.00000000
_symmetry_Int_Tables_number   1
_chemical_formula_structural   LaB2Rh3
_chemical_formula_sum   'La1 B2 Rh3'
_cell_volume   81.58423909
_cell_formula_units_Z   1
loop_
 _symmetry_equiv_pos_site_id
 _symmetry_equiv_pos_as_xyz
  1  'x, y, z'
loop_
 _atom_type_symbol
 _atom_type_oxidation_number
  La0+  0.0
  B0+  0.0
  Rh0+  0.0
loop_
 _atom_site_type_symbol
 _atom_site_label
 _atom_site_symmetry_multiplicity
 _atom_site_fract_x
 _atom_site_fract_y
 _atom_site_fract_z
 _atom_site_occupancy
  La0+  La0  1  0.00000000  0.00000000  0.00000000  1.0
  B0+  B1  1  0.66666667  0.33333333  0.00000000  1.0
  B0+  B2  1  0.33333333  0.66666667  0.00000000  1.0
  Rh0+  Rh3  1  0.50000000  0.50000000  0.50000000  1.0
  Rh0+  Rh4  1  0.50000000  0.00000000  0.50000000  1.0
  Rh0+  Rh5  1  0.00000000  0.50000000  0.50000000  1.0
