# generated using pymatgen
data_LuB2Ru
_symmetry_space_group_name_H-M   'P 1'
_cell_length_a   5.81500000
_cell_length_b   5.23000000
_cell_length_c   6.29000000
_cell_angle_alpha   90.00000000
_cell_angle_beta   90.00000000
_cell_angle_gamma   90.00000000
_symmetry_Int_Tables_number   1
_chemical_formula_structural   LuB2Ru
_chemical_formula_sum   'Lu4 B8 Ru4'
_cell_volume   191.29431050
_cell_formula_units_Z   4
loop_
 _symmetry_equiv_pos_site_id
 _symmetry_equiv_pos_as_xyz
  1  'x, y, z'
loop_
 _atom_type_symbol
 _atom_type_oxidation_number
  Lu0+  0.0
  B0+  0.0
  Ru0+  0.0
loop_
 _atom_site_type_symbol
 _atom_site_label
 _atom_site_symmetry_multiplicity
 _atom_site_fract_x
 _atom_site_fract_y
 _atom_site_fract_z
 _atom_site_occupancy
  Lu0+  Lu0  1  0.51100000  0.25000000  0.83500000  1.0
  Lu0+  Lu1  1  0.01100000  0.25000000  0.66500000  1.0
  Lu0+  Lu2  1  0.48900000  0.75000000  0.16500000  1.0
  Lu0+  Lu3  1  0.98900000  0.75000000  0.33500000  1.0
  B0+  B4  1  0.85800000  0.08400000  0.03600000  1.0
  B0+  B5  1  0.35800000  0.41600000  0.46400000  1.0
  B0+  B6  1  0.14200000  0.58400000  0.96400000  1.0
  B0+  B7  1  0.64200000  0.91600000  0.53600000  1.0
  B0+  B8  1  0.14200000  0.91600000  0.96400000  1.0
  B0+  B9  1  0.64200000  0.58400000  0.53600000  1.0
  B0+  B10  1  0.85800000  0.41600000  0.03600000  1.0
  B0+  B11  1  0.35800000  0.08400000  0.46400000  1.0
  Ru0+  Ru12  1  0.68200000  0.25000000  0.31800000  1.0
  Ru0+  Ru13  1  0.18200000  0.25000000  0.18200000  1.0
  Ru0+  Ru14  1  0.31800000  0.75000000  0.68200000  1.0
  Ru0+  Ru15  1  0.81800000  0.75000000  0.81800000  1.0
