# generated using pymatgen
data_NdB6
_symmetry_space_group_name_H-M   'P 1'
_cell_length_a   4.12600000
_cell_length_b   4.12600000
_cell_length_c   4.12600000
_cell_angle_alpha   90.00000000
_cell_angle_beta   90.00000000
_cell_angle_gamma   90.00000000
_symmetry_Int_Tables_number   1
_chemical_formula_structural   NdB6
_chemical_formula_sum   'Nd1 B6'
_cell_volume   70.24051238
_cell_formula_units_Z   1
loop_
 _symmetry_equiv_pos_site_id
 _symmetry_equiv_pos_as_xyz
  1  'x, y, z'
loop_
 _atom_type_symbol
 _atom_type_oxidation_number
  Nd3+  3.0
  B0.5-  -0.5
loop_
 _atom_site_type_symbol
 _atom_site_label
 _atom_site_symmetry_multiplicity
 _atom_site_fract_x
 _atom_site_fract_y
 _atom_site_fract_z
 _atom_site_occupancy
  Nd3+  Nd0  1  0.00000000  0.00000000  0.00000000  1.0
  B0.5-  B1  1  0.19800000  0.50000000  0.50000000  1.0
  B0.5-  B2  1  0.50000000  0.50000000  0.80200000  1.0
  B0.5-  B3  1  0.50000000  0.19800000  0.50000000  1.0
  B0.5-  B4  1  0.50000000  0.50000000  0.19800000  1.0
  B0.5-  B5  1  0.50000000  0.80200000  0.50000000  1.0
  B0.5-  B6  1  0.80200000  0.50000000  0.50000000  1.0
