# generated using pymatgen
data_Th(BRh)4
_symmetry_space_group_name_H-M   'P 1'
_cell_length_a   5.35800000
_cell_length_b   5.35800000
_cell_length_c   7.54600000
_cell_angle_alpha   90.00000000
_cell_angle_beta   90.00000000
_cell_angle_gamma   90.00000000
_symmetry_Int_Tables_number   1
_chemical_formula_structural   Th(BRh)4
_chemical_formula_sum   'Th2 B8 Rh8'
_cell_volume   216.63180554
_cell_formula_units_Z   2
loop_
 _symmetry_equiv_pos_site_id
 _symmetry_equiv_pos_as_xyz
  1  'x, y, z'
loop_
 _atom_type_symbol
 _atom_type_oxidation_number
  Th0+  0.0
  B0+  0.0
  Rh0+  0.0
loop_
 _atom_site_type_symbol
 _atom_site_label
 _atom_site_symmetry_multiplicity
 _atom_site_fract_x
 _atom_site_fract_y
 _atom_site_fract_z
 _atom_site_occupancy
  Th0+  Th0  1  0.75000000  0.25000000  0.25000000  1.0
  Th0+  Th1  1  0.25000000  0.75000000  0.75000000  1.0
  B0+  B2  1  0.57700000  0.75000000  0.40300000  1.0
  B0+  B3  1  0.92300000  0.75000000  0.40300000  1.0
  B0+  B4  1  0.75000000  0.57700000  0.90300000  1.0
  B0+  B5  1  0.75000000  0.92300000  0.90300000  1.0
  B0+  B6  1  0.42300000  0.25000000  0.59700000  1.0
  B0+  B7  1  0.07700000  0.25000000  0.59700000  1.0
  B0+  B8  1  0.25000000  0.42300000  0.09700000  1.0
  B0+  B9  1  0.25000000  0.07700000  0.09700000  1.0
  Rh0+  Rh10  1  0.00100000  0.75000000  0.10500000  1.0
  Rh0+  Rh11  1  0.49900000  0.75000000  0.10500000  1.0
  Rh0+  Rh12  1  0.75000000  0.00100000  0.60500000  1.0
  Rh0+  Rh13  1  0.75000000  0.49900000  0.60500000  1.0
  Rh0+  Rh14  1  0.99900000  0.25000000  0.89500000  1.0
  Rh0+  Rh15  1  0.50100000  0.25000000  0.89500000  1.0
  Rh0+  Rh16  1  0.25000000  0.99900000  0.39500000  1.0
  Rh0+  Rh17  1  0.25000000  0.50100000  0.39500000  1.0
