# generated using pymatgen
data_La4Bi3
_symmetry_space_group_name_H-M   'P 1'
_cell_length_a   9.78680000
_cell_length_b   9.78680000
_cell_length_c   9.78680000
_cell_angle_alpha   90.00000000
_cell_angle_beta   90.00000000
_cell_angle_gamma   90.00000000
_symmetry_Int_Tables_number   1
_chemical_formula_structural   La4Bi3
_chemical_formula_sum   'La16 Bi12'
_cell_volume   937.39393636
_cell_formula_units_Z   4
loop_
 _symmetry_equiv_pos_site_id
 _symmetry_equiv_pos_as_xyz
  1  'x, y, z'
loop_
 _atom_type_symbol
 _atom_type_oxidation_number
  La0+  0.0
  Bi0+  0.0
loop_
 _atom_site_type_symbol
 _atom_site_label
 _atom_site_symmetry_multiplicity
 _atom_site_fract_x
 _atom_site_fract_y
 _atom_site_fract_z
 _atom_site_occupancy
  La0+  La0  1  0.17600000  0.67600000  0.82400000  1.0
  La0+  La1  1  0.82400000  0.17600000  0.67600000  1.0
  La0+  La2  1  0.67600000  0.82400000  0.17600000  1.0
  La0+  La3  1  0.32400000  0.32400000  0.32400000  1.0
  La0+  La4  1  0.57400000  0.42600000  0.92600000  1.0
  La0+  La5  1  0.42600000  0.92600000  0.57400000  1.0
  La0+  La6  1  0.92600000  0.57400000  0.42600000  1.0
  La0+  La7  1  0.07400000  0.07400000  0.07400000  1.0
  La0+  La8  1  0.67600000  0.17600000  0.32400000  1.0
  La0+  La9  1  0.32400000  0.67600000  0.17600000  1.0
  La0+  La10  1  0.17600000  0.32400000  0.67600000  1.0
  La0+  La11  1  0.82400000  0.82400000  0.82400000  1.0
  La0+  La12  1  0.07400000  0.92600000  0.42600000  1.0
  La0+  La13  1  0.92600000  0.42600000  0.07400000  1.0
  La0+  La14  1  0.42600000  0.07400000  0.92600000  1.0
  La0+  La15  1  0.57400000  0.57400000  0.57400000  1.0
  Bi0+  Bi16  1  0.25000000  0.37500000  0.00000000  1.0
  Bi0+  Bi17  1  0.75000000  0.87500000  0.50000000  1.0
  Bi0+  Bi18  1  0.75000000  0.12500000  0.00000000  1.0
  Bi0+  Bi19  1  0.25000000  0.62500000  0.50000000  1.0
  Bi0+  Bi20  1  0.00000000  0.25000000  0.37500000  1.0
  Bi0+  Bi21  1  0.50000000  0.75000000  0.87500000  1.0
  Bi0+  Bi22  1  0.00000000  0.75000000  0.12500000  1.0
  Bi0+  Bi23  1  0.50000000  0.25000000  0.62500000  1.0
  Bi0+  Bi24  1  0.37500000  0.00000000  0.25000000  1.0
  Bi0+  Bi25  1  0.87500000  0.50000000  0.75000000  1.0
  Bi0+  Bi26  1  0.12500000  0.00000000  0.75000000  1.0
  Bi0+  Bi27  1  0.62500000  0.50000000  0.25000000  1.0
