# generated using pymatgen
data_La2Bi
_symmetry_space_group_name_H-M   'P 1'
_cell_length_a   4.67370000
_cell_length_b   4.67370000
_cell_length_c   18.39520000
_cell_angle_alpha   90.00000000
_cell_angle_beta   90.00000000
_cell_angle_gamma   90.00000000
_symmetry_Int_Tables_number   1
_chemical_formula_structural   La2Bi
_chemical_formula_sum   'La8 Bi4'
_cell_volume   401.81503043
_cell_formula_units_Z   4
loop_
 _symmetry_equiv_pos_site_id
 _symmetry_equiv_pos_as_xyz
  1  'x, y, z'
loop_
 _atom_type_symbol
 _atom_type_oxidation_number
  La0+  0.0
  Bi0+  0.0
loop_
 _atom_site_type_symbol
 _atom_site_label
 _atom_site_symmetry_multiplicity
 _atom_site_fract_x
 _atom_site_fract_y
 _atom_site_fract_z
 _atom_site_occupancy
  La0+  La0  1  0.50000000  0.00000000  0.00000000  1.0
  La0+  La1  1  0.00000000  0.50000000  0.00000000  1.0
  La0+  La2  1  0.00000000  0.50000000  0.50000000  1.0
  La0+  La3  1  0.50000000  0.00000000  0.50000000  1.0
  La0+  La4  1  0.00000000  0.00000000  0.67400000  1.0
  La0+  La5  1  0.00000000  0.00000000  0.32600000  1.0
  La0+  La6  1  0.50000000  0.50000000  0.17400000  1.0
  La0+  La7  1  0.50000000  0.50000000  0.82600000  1.0
  Bi0+  Bi8  1  0.00000000  0.00000000  0.86200000  1.0
  Bi0+  Bi9  1  0.00000000  0.00000000  0.13800000  1.0
  Bi0+  Bi10  1  0.50000000  0.50000000  0.36200000  1.0
  Bi0+  Bi11  1  0.50000000  0.50000000  0.63800000  1.0
