# generated using pymatgen
data_CeCoGe3
_symmetry_space_group_name_H-M   'P 1'
_cell_length_a   4.31700000
_cell_length_b   4.31700000
_cell_length_c   9.83300000
_cell_angle_alpha   90.00000000
_cell_angle_beta   90.00000000
_cell_angle_gamma   90.00000000
_symmetry_Int_Tables_number   1
_chemical_formula_structural   CeCoGe3
_chemical_formula_sum   'Ce2 Co2 Ge6'
_cell_volume   183.25259634
_cell_formula_units_Z   2
loop_
 _symmetry_equiv_pos_site_id
 _symmetry_equiv_pos_as_xyz
  1  'x, y, z'
loop_
 _atom_type_symbol
 _atom_type_oxidation_number
  Ce0+  0.0
  Co0+  0.0
  Ge0+  0.0
loop_
 _atom_site_type_symbol
 _atom_site_label
 _atom_site_symmetry_multiplicity
 _atom_site_fract_x
 _atom_site_fract_y
 _atom_site_fract_z
 _atom_site_occupancy
  Ce0+  Ce0  1  0.00000000  0.00000000  0.00000000  1.0
  Ce0+  Ce1  1  0.50000000  0.50000000  0.50000000  1.0
  Co0+  Co2  1  0.00000000  0.00000000  0.66600000  1.0
  Co0+  Co3  1  0.50000000  0.50000000  0.16600000  1.0
  Ge0+  Ge4  1  0.00000000  0.00000000  0.43700000  1.0
  Ge0+  Ge5  1  0.50000000  0.50000000  0.93700000  1.0
  Ge0+  Ge6  1  0.50000000  0.00000000  0.26500000  1.0
  Ge0+  Ge7  1  0.00000000  0.50000000  0.26500000  1.0
  Ge0+  Ge8  1  0.00000000  0.50000000  0.76500000  1.0
  Ge0+  Ge9  1  0.50000000  0.00000000  0.76500000  1.0
