# generated using pymatgen
data_Ce(CuGe)2
_symmetry_space_group_name_H-M   'P 1'
_cell_length_a   4.17200000
_cell_length_b   4.17200000
_cell_length_c   10.21200000
_cell_angle_alpha   90.00000000
_cell_angle_beta   90.00000000
_cell_angle_gamma   90.00000000
_symmetry_Int_Tables_number   1
_chemical_formula_structural   Ce(CuGe)2
_chemical_formula_sum   'Ce2 Cu4 Ge4'
_cell_volume   177.74582381
_cell_formula_units_Z   2
loop_
 _symmetry_equiv_pos_site_id
 _symmetry_equiv_pos_as_xyz
  1  'x, y, z'
loop_
 _atom_type_symbol
 _atom_type_oxidation_number
  Ce0+  0.0
  Cu0+  0.0
  Ge0+  0.0
loop_
 _atom_site_type_symbol
 _atom_site_label
 _atom_site_symmetry_multiplicity
 _atom_site_fract_x
 _atom_site_fract_y
 _atom_site_fract_z
 _atom_site_occupancy
  Ce0+  Ce0  1  0.00000000  0.00000000  0.00000000  1.0
  Ce0+  Ce1  1  0.50000000  0.50000000  0.50000000  1.0
  Cu0+  Cu2  1  0.50000000  0.00000000  0.75000000  1.0
  Cu0+  Cu3  1  0.00000000  0.50000000  0.75000000  1.0
  Cu0+  Cu4  1  0.50000000  0.00000000  0.25000000  1.0
  Cu0+  Cu5  1  0.00000000  0.50000000  0.25000000  1.0
  Ge0+  Ge6  1  0.00000000  0.00000000  0.61500000  1.0
  Ge0+  Ge7  1  0.00000000  0.00000000  0.38500000  1.0
  Ge0+  Ge8  1  0.50000000  0.50000000  0.11500000  1.0
  Ge0+  Ge9  1  0.50000000  0.50000000  0.88500000  1.0
