# generated using pymatgen
data_CeRu2
_symmetry_space_group_name_H-M   'P 1'
_cell_length_a   7.53650000
_cell_length_b   7.53650000
_cell_length_c   7.53650000
_cell_angle_alpha   90.00000000
_cell_angle_beta   90.00000000
_cell_angle_gamma   90.00000000
_symmetry_Int_Tables_number   1
_chemical_formula_structural   CeRu2
_chemical_formula_sum   'Ce8 Ru16'
_cell_volume   428.06439925
_cell_formula_units_Z   8
loop_
 _symmetry_equiv_pos_site_id
 _symmetry_equiv_pos_as_xyz
  1  'x, y, z'
loop_
 _atom_type_symbol
 _atom_type_oxidation_number
  Ce0+  0.0
  Ru0+  0.0
loop_
 _atom_site_type_symbol
 _atom_site_label
 _atom_site_symmetry_multiplicity
 _atom_site_fract_x
 _atom_site_fract_y
 _atom_site_fract_z
 _atom_site_occupancy
  Ce0+  Ce0  1  0.25000000  0.25000000  0.25000000  1.0
  Ce0+  Ce1  1  0.00000000  0.00000000  0.00000000  1.0
  Ce0+  Ce2  1  0.25000000  0.75000000  0.75000000  1.0
  Ce0+  Ce3  1  0.00000000  0.50000000  0.50000000  1.0
  Ce0+  Ce4  1  0.75000000  0.25000000  0.75000000  1.0
  Ce0+  Ce5  1  0.50000000  0.00000000  0.50000000  1.0
  Ce0+  Ce6  1  0.75000000  0.75000000  0.25000000  1.0
  Ce0+  Ce7  1  0.50000000  0.50000000  0.00000000  1.0
  Ru0+  Ru8  1  0.87500000  0.87500000  0.62500000  1.0
  Ru0+  Ru9  1  0.87500000  0.62500000  0.87500000  1.0
  Ru0+  Ru10  1  0.62500000  0.87500000  0.87500000  1.0
  Ru0+  Ru11  1  0.62500000  0.62500000  0.62500000  1.0
  Ru0+  Ru12  1  0.37500000  0.37500000  0.62500000  1.0
  Ru0+  Ru13  1  0.37500000  0.62500000  0.37500000  1.0
  Ru0+  Ru14  1  0.62500000  0.37500000  0.37500000  1.0
  Ru0+  Ru15  1  0.87500000  0.37500000  0.12500000  1.0
  Ru0+  Ru16  1  0.87500000  0.12500000  0.37500000  1.0
  Ru0+  Ru17  1  0.62500000  0.12500000  0.12500000  1.0
  Ru0+  Ru18  1  0.37500000  0.87500000  0.12500000  1.0
  Ru0+  Ru19  1  0.37500000  0.12500000  0.87500000  1.0
  Ru0+  Ru20  1  0.12500000  0.87500000  0.37500000  1.0
  Ru0+  Ru21  1  0.12500000  0.62500000  0.12500000  1.0
  Ru0+  Ru22  1  0.12500000  0.37500000  0.87500000  1.0
  Ru0+  Ru23  1  0.12500000  0.12500000  0.62500000  1.0
