# generated using pymatgen
data_Lu3Co
_symmetry_space_group_name_H-M   'P 1'
_cell_length_a   6.87000000
_cell_length_b   9.03000000
_cell_length_c   6.14000000
_cell_angle_alpha   90.00000000
_cell_angle_beta   90.00000000
_cell_angle_gamma   90.00000000
_symmetry_Int_Tables_number   1
_chemical_formula_structural   Lu3Co
_chemical_formula_sum   'Lu12 Co4'
_cell_volume   380.90165400
_cell_formula_units_Z   4
loop_
 _symmetry_equiv_pos_site_id
 _symmetry_equiv_pos_as_xyz
  1  'x, y, z'
loop_
 _atom_type_symbol
 _atom_type_oxidation_number
  Lu0+  0.0
  Co0+  0.0
loop_
 _atom_site_type_symbol
 _atom_site_label
 _atom_site_symmetry_multiplicity
 _atom_site_fract_x
 _atom_site_fract_y
 _atom_site_fract_z
 _atom_site_occupancy
  Lu0+  Lu0  1  0.68000000  0.06400000  0.32000000  1.0
  Lu0+  Lu1  1  0.18000000  0.43600000  0.18000000  1.0
  Lu0+  Lu2  1  0.32000000  0.56400000  0.68000000  1.0
  Lu0+  Lu3  1  0.82000000  0.93600000  0.82000000  1.0
  Lu0+  Lu4  1  0.32000000  0.93600000  0.68000000  1.0
  Lu0+  Lu5  1  0.82000000  0.56400000  0.82000000  1.0
  Lu0+  Lu6  1  0.68000000  0.43600000  0.32000000  1.0
  Lu0+  Lu7  1  0.18000000  0.06400000  0.18000000  1.0
  Lu0+  Lu8  1  0.53300000  0.25000000  0.86500000  1.0
  Lu0+  Lu9  1  0.03300000  0.25000000  0.63500000  1.0
  Lu0+  Lu10  1  0.46700000  0.75000000  0.13500000  1.0
  Lu0+  Lu11  1  0.96700000  0.75000000  0.36500000  1.0
  Co0+  Co12  1  0.89100000  0.25000000  0.06400000  1.0
  Co0+  Co13  1  0.39100000  0.25000000  0.43600000  1.0
  Co0+  Co14  1  0.10900000  0.75000000  0.93600000  1.0
  Co0+  Co15  1  0.60900000  0.75000000  0.56400000  1.0
