# generated using pymatgen
data_Th7Co3
_symmetry_space_group_name_H-M   'P 1'
_cell_length_a   9.84000000
_cell_length_b   9.84000000
_cell_length_c   6.20700000
_cell_angle_alpha   90.00000000
_cell_angle_beta   90.00000000
_cell_angle_gamma   120.00000000
_symmetry_Int_Tables_number   1
_chemical_formula_structural   Th7Co3
_chemical_formula_sum   'Th14 Co6'
_cell_volume   520.47823589
_cell_formula_units_Z   2
loop_
 _symmetry_equiv_pos_site_id
 _symmetry_equiv_pos_as_xyz
  1  'x, y, z'
loop_
 _atom_type_symbol
 _atom_type_oxidation_number
  Th0+  0.0
  Co0+  0.0
loop_
 _atom_site_type_symbol
 _atom_site_label
 _atom_site_symmetry_multiplicity
 _atom_site_fract_x
 _atom_site_fract_y
 _atom_site_fract_z
 _atom_site_occupancy
  Th0+  Th0  1  0.66666667  0.33333333  0.56000000  1.0
  Th0+  Th1  1  0.33333333  0.66666667  0.06000000  1.0
  Th0+  Th2  1  0.87400000  0.74800000  0.75000000  1.0
  Th0+  Th3  1  0.25200000  0.12600000  0.75000000  1.0
  Th0+  Th4  1  0.87400000  0.12600000  0.75000000  1.0
  Th0+  Th5  1  0.12600000  0.25200000  0.25000000  1.0
  Th0+  Th6  1  0.74800000  0.87400000  0.25000000  1.0
  Th0+  Th7  1  0.12600000  0.87400000  0.25000000  1.0
  Th0+  Th8  1  0.45600000  0.91200000  0.53000000  1.0
  Th0+  Th9  1  0.08800000  0.54400000  0.53000000  1.0
  Th0+  Th10  1  0.45600000  0.54400000  0.53000000  1.0
  Th0+  Th11  1  0.54400000  0.08800000  0.03000000  1.0
  Th0+  Th12  1  0.91200000  0.45600000  0.03000000  1.0
  Th0+  Th13  1  0.54400000  0.45600000  0.03000000  1.0
  Co0+  Co14  1  0.18500000  0.37000000  0.81000000  1.0
  Co0+  Co15  1  0.63000000  0.81500000  0.81000000  1.0
  Co0+  Co16  1  0.18500000  0.81500000  0.81000000  1.0
  Co0+  Co17  1  0.81500000  0.63000000  0.31000000  1.0
  Co0+  Co18  1  0.37000000  0.18500000  0.31000000  1.0
  Co0+  Co19  1  0.81500000  0.18500000  0.31000000  1.0
