# generated using pymatgen
data_UCo
_symmetry_space_group_name_H-M   'P 1'
_cell_length_a   6.34300000
_cell_length_b   6.34300000
_cell_length_c   6.34300000
_cell_angle_alpha   90.00000000
_cell_angle_beta   90.00000000
_cell_angle_gamma   90.00000000
_symmetry_Int_Tables_number   1
_chemical_formula_structural   UCo
_chemical_formula_sum   'U8 Co8'
_cell_volume   255.20203561
_cell_formula_units_Z   8
loop_
 _symmetry_equiv_pos_site_id
 _symmetry_equiv_pos_as_xyz
  1  'x, y, z'
loop_
 _atom_type_symbol
 _atom_type_oxidation_number
  U0+  0.0
  Co0+  0.0
loop_
 _atom_site_type_symbol
 _atom_site_label
 _atom_site_symmetry_multiplicity
 _atom_site_fract_x
 _atom_site_fract_y
 _atom_site_fract_z
 _atom_site_occupancy
  U0+  U0  1  0.46500000  0.96500000  0.53500000  1.0
  U0+  U1  1  0.96500000  0.53500000  0.46500000  1.0
  U0+  U2  1  0.53500000  0.46500000  0.96500000  1.0
  U0+  U3  1  0.03500000  0.03500000  0.03500000  1.0
  U0+  U4  1  0.96500000  0.46500000  0.03500000  1.0
  U0+  U5  1  0.46500000  0.03500000  0.96500000  1.0
  U0+  U6  1  0.03500000  0.96500000  0.46500000  1.0
  U0+  U7  1  0.53500000  0.53500000  0.53500000  1.0
  Co0+  Co8  1  0.20600000  0.70600000  0.79400000  1.0
  Co0+  Co9  1  0.70600000  0.79400000  0.20600000  1.0
  Co0+  Co10  1  0.79400000  0.20600000  0.70600000  1.0
  Co0+  Co11  1  0.29400000  0.29400000  0.29400000  1.0
  Co0+  Co12  1  0.70600000  0.20600000  0.29400000  1.0
  Co0+  Co13  1  0.20600000  0.29400000  0.70600000  1.0
  Co0+  Co14  1  0.29400000  0.70600000  0.20600000  1.0
  Co0+  Co15  1  0.79400000  0.79400000  0.79400000  1.0
