# generated using pymatgen
data_LaCu6
_symmetry_space_group_name_H-M   'P 1'
_cell_length_a   8.16500000
_cell_length_b   5.14800000
_cell_length_c   10.23000000
_cell_angle_alpha   90.00000000
_cell_angle_beta   90.00000000
_cell_angle_gamma   90.00000000
_symmetry_Int_Tables_number   1
_chemical_formula_structural   LaCu6
_chemical_formula_sum   'La4 Cu24'
_cell_volume   430.00188660
_cell_formula_units_Z   4
loop_
 _symmetry_equiv_pos_site_id
 _symmetry_equiv_pos_as_xyz
  1  'x, y, z'
loop_
 _atom_type_symbol
 _atom_type_oxidation_number
  La0+  0.0
  Cu0+  0.0
loop_
 _atom_site_type_symbol
 _atom_site_label
 _atom_site_symmetry_multiplicity
 _atom_site_fract_x
 _atom_site_fract_y
 _atom_site_fract_z
 _atom_site_occupancy
  La0+  La0  1  0.76400000  0.25000000  0.06500000  1.0
  La0+  La1  1  0.26400000  0.25000000  0.43500000  1.0
  La0+  La2  1  0.23600000  0.75000000  0.93500000  1.0
  La0+  La3  1  0.73600000  0.75000000  0.56500000  1.0
  Cu0+  Cu4  1  0.64600000  0.25000000  0.35900000  1.0
  Cu0+  Cu5  1  0.14600000  0.25000000  0.14100000  1.0
  Cu0+  Cu6  1  0.35400000  0.75000000  0.64100000  1.0
  Cu0+  Cu7  1  0.85400000  0.75000000  0.85900000  1.0
  Cu0+  Cu8  1  0.31900000  0.25000000  0.74700000  1.0
  Cu0+  Cu9  1  0.81900000  0.25000000  0.75300000  1.0
  Cu0+  Cu10  1  0.68100000  0.75000000  0.25300000  1.0
  Cu0+  Cu11  1  0.18100000  0.75000000  0.24700000  1.0
  Cu0+  Cu12  1  0.05900000  0.25000000  0.90300000  1.0
  Cu0+  Cu13  1  0.55900000  0.25000000  0.59700000  1.0
  Cu0+  Cu14  1  0.94100000  0.75000000  0.09700000  1.0
  Cu0+  Cu15  1  0.44100000  0.75000000  0.40300000  1.0
  Cu0+  Cu16  1  0.40100000  0.25000000  0.98400000  1.0
  Cu0+  Cu17  1  0.90100000  0.25000000  0.51600000  1.0
  Cu0+  Cu18  1  0.59900000  0.75000000  0.01600000  1.0
  Cu0+  Cu19  1  0.09900000  0.75000000  0.48400000  1.0
  Cu0+  Cu20  1  0.93600000  0.00700000  0.31000000  1.0
  Cu0+  Cu21  1  0.43600000  0.49300000  0.19000000  1.0
  Cu0+  Cu22  1  0.06400000  0.50700000  0.69000000  1.0
  Cu0+  Cu23  1  0.56400000  0.99300000  0.81000000  1.0
  Cu0+  Cu24  1  0.06400000  0.99300000  0.69000000  1.0
  Cu0+  Cu25  1  0.56400000  0.50700000  0.81000000  1.0
  Cu0+  Cu26  1  0.93600000  0.49300000  0.31000000  1.0
  Cu0+  Cu27  1  0.43600000  0.00700000  0.19000000  1.0
