# generated using pymatgen
data_YGa6
_symmetry_space_group_name_H-M   'P 1'
_cell_length_a   5.94700000
_cell_length_b   5.94700000
_cell_length_c   7.54900000
_cell_angle_alpha   90.00000000
_cell_angle_beta   90.00000000
_cell_angle_gamma   90.00000000
_symmetry_Int_Tables_number   1
_chemical_formula_structural   YGa6
_chemical_formula_sum   'Y2 Ga12'
_cell_volume   266.98404114
_cell_formula_units_Z   2
loop_
 _symmetry_equiv_pos_site_id
 _symmetry_equiv_pos_as_xyz
  1  'x, y, z'
loop_
 _atom_type_symbol
 _atom_type_oxidation_number
  Y0+  0.0
  Ga0+  0.0
loop_
 _atom_site_type_symbol
 _atom_site_label
 _atom_site_symmetry_multiplicity
 _atom_site_fract_x
 _atom_site_fract_y
 _atom_site_fract_z
 _atom_site_occupancy
  Y0+  Y0  1  0.00000000  0.50000000  0.00000000  1.0
  Y0+  Y1  1  0.50000000  0.00000000  0.00000000  1.0
  Ga0+  Ga2  1  0.50000000  0.50000000  0.16100000  1.0
  Ga0+  Ga3  1  0.00000000  0.00000000  0.83900000  1.0
  Ga0+  Ga4  1  0.50000000  0.50000000  0.83900000  1.0
  Ga0+  Ga5  1  0.00000000  0.00000000  0.16100000  1.0
  Ga0+  Ga6  1  0.68590000  0.18590000  0.34800000  1.0
  Ga0+  Ga7  1  0.31410000  0.81410000  0.34800000  1.0
  Ga0+  Ga8  1  0.18590000  0.68590000  0.65200000  1.0
  Ga0+  Ga9  1  0.81410000  0.31410000  0.65200000  1.0
  Ga0+  Ga10  1  0.68590000  0.81410000  0.65200000  1.0
  Ga0+  Ga11  1  0.31410000  0.18590000  0.65200000  1.0
  Ga0+  Ga12  1  0.18590000  0.31410000  0.34800000  1.0
  Ga0+  Ga13  1  0.81410000  0.68590000  0.34800000  1.0
