# generated using pymatgen
data_ThCu6
_symmetry_space_group_name_H-M   'P 1'
_cell_length_a   8.11500000
_cell_length_b   5.07800000
_cell_length_c   10.12200000
_cell_angle_alpha   90.00000000
_cell_angle_beta   90.00000000
_cell_angle_gamma   90.00000000
_symmetry_Int_Tables_number   1
_chemical_formula_structural   ThCu6
_chemical_formula_sum   'Th4 Cu24'
_cell_volume   417.10707234
_cell_formula_units_Z   4
loop_
 _symmetry_equiv_pos_site_id
 _symmetry_equiv_pos_as_xyz
  1  'x, y, z'
loop_
 _atom_type_symbol
 _atom_type_oxidation_number
  Th0+  0.0
  Cu0+  0.0
loop_
 _atom_site_type_symbol
 _atom_site_label
 _atom_site_symmetry_multiplicity
 _atom_site_fract_x
 _atom_site_fract_y
 _atom_site_fract_z
 _atom_site_occupancy
  Th0+  Th0  1  0.76000000  0.25000000  0.06600000  1.0
  Th0+  Th1  1  0.26000000  0.25000000  0.43400000  1.0
  Th0+  Th2  1  0.24000000  0.75000000  0.93400000  1.0
  Th0+  Th3  1  0.74000000  0.75000000  0.56600000  1.0
  Cu0+  Cu4  1  0.63200000  0.25000000  0.36000000  1.0
  Cu0+  Cu5  1  0.13200000  0.25000000  0.14000000  1.0
  Cu0+  Cu6  1  0.36800000  0.75000000  0.64000000  1.0
  Cu0+  Cu7  1  0.86800000  0.75000000  0.86000000  1.0
  Cu0+  Cu8  1  0.31900000  0.25000000  0.74600000  1.0
  Cu0+  Cu9  1  0.81900000  0.25000000  0.75400000  1.0
  Cu0+  Cu10  1  0.68100000  0.75000000  0.25400000  1.0
  Cu0+  Cu11  1  0.18100000  0.75000000  0.24600000  1.0
  Cu0+  Cu12  1  0.06300000  0.25000000  0.90500000  1.0
  Cu0+  Cu13  1  0.56300000  0.25000000  0.59500000  1.0
  Cu0+  Cu14  1  0.93700000  0.75000000  0.09500000  1.0
  Cu0+  Cu15  1  0.43700000  0.75000000  0.40500000  1.0
  Cu0+  Cu16  1  0.40200000  0.25000000  0.98600000  1.0
  Cu0+  Cu17  1  0.90200000  0.25000000  0.51400000  1.0
  Cu0+  Cu18  1  0.59800000  0.75000000  0.01400000  1.0
  Cu0+  Cu19  1  0.09800000  0.75000000  0.48600000  1.0
  Cu0+  Cu20  1  0.93600000  0.00300000  0.30900000  1.0
  Cu0+  Cu21  1  0.43600000  0.49700000  0.19100000  1.0
  Cu0+  Cu22  1  0.06400000  0.50300000  0.69100000  1.0
  Cu0+  Cu23  1  0.56400000  0.99700000  0.80900000  1.0
  Cu0+  Cu24  1  0.06400000  0.99700000  0.69100000  1.0
  Cu0+  Cu25  1  0.56400000  0.50300000  0.80900000  1.0
  Cu0+  Cu26  1  0.93600000  0.49700000  0.30900000  1.0
  Cu0+  Cu27  1  0.43600000  0.00300000  0.19100000  1.0
