# generated using pymatgen
data_Tm2Fe3Si5
_symmetry_space_group_name_H-M   'P 1'
_cell_length_a   10.37000000
_cell_length_b   10.37000000
_cell_length_c   5.41000000
_cell_angle_alpha   90.00000000
_cell_angle_beta   90.00000000
_cell_angle_gamma   90.00000000
_symmetry_Int_Tables_number   1
_chemical_formula_structural   Tm2Fe3Si5
_chemical_formula_sum   'Tm8 Fe12 Si20'
_cell_volume   581.77462900
_cell_formula_units_Z   4
loop_
 _symmetry_equiv_pos_site_id
 _symmetry_equiv_pos_as_xyz
  1  'x, y, z'
loop_
 _atom_type_symbol
 _atom_type_oxidation_number
  Tm0+  0.0
  Fe0+  0.0
  Si0+  0.0
loop_
 _atom_site_type_symbol
 _atom_site_label
 _atom_site_symmetry_multiplicity
 _atom_site_fract_x
 _atom_site_fract_y
 _atom_site_fract_z
 _atom_site_occupancy
  Tm0+  Tm0  1  0.73500000  0.57000000  0.50000000  1.0
  Tm0+  Tm1  1  0.26500000  0.43000000  0.50000000  1.0
  Tm0+  Tm2  1  0.76500000  0.07000000  0.00000000  1.0
  Tm0+  Tm3  1  0.23500000  0.93000000  0.00000000  1.0
  Tm0+  Tm4  1  0.57000000  0.26500000  0.50000000  1.0
  Tm0+  Tm5  1  0.43000000  0.73500000  0.50000000  1.0
  Tm0+  Tm6  1  0.07000000  0.23500000  0.00000000  1.0
  Tm0+  Tm7  1  0.93000000  0.76500000  0.00000000  1.0
  Fe0+  Fe8  1  0.85600000  0.87700000  0.50000000  1.0
  Fe0+  Fe9  1  0.14400000  0.12300000  0.50000000  1.0
  Fe0+  Fe10  1  0.64400000  0.37700000  0.00000000  1.0
  Fe0+  Fe11  1  0.35600000  0.62300000  0.00000000  1.0
  Fe0+  Fe12  1  0.87700000  0.14400000  0.50000000  1.0
  Fe0+  Fe13  1  0.12300000  0.85600000  0.50000000  1.0
  Fe0+  Fe14  1  0.37700000  0.35600000  0.00000000  1.0
  Fe0+  Fe15  1  0.62300000  0.64400000  0.00000000  1.0
  Fe0+  Fe16  1  0.00000000  0.50000000  0.25000000  1.0
  Fe0+  Fe17  1  0.50000000  0.00000000  0.75000000  1.0
  Fe0+  Fe18  1  0.50000000  0.00000000  0.25000000  1.0
  Fe0+  Fe19  1  0.00000000  0.50000000  0.75000000  1.0
  Si0+  Si20  1  0.17700000  0.67700000  0.25000000  1.0
  Si0+  Si21  1  0.82300000  0.32300000  0.25000000  1.0
  Si0+  Si22  1  0.32300000  0.17700000  0.75000000  1.0
  Si0+  Si23  1  0.67700000  0.82300000  0.75000000  1.0
  Si0+  Si24  1  0.67700000  0.82300000  0.25000000  1.0
  Si0+  Si25  1  0.32300000  0.17700000  0.25000000  1.0
  Si0+  Si26  1  0.17700000  0.67700000  0.75000000  1.0
  Si0+  Si27  1  0.82300000  0.32300000  0.75000000  1.0
  Si0+  Si28  1  0.50000000  0.50000000  0.24100000  1.0
  Si0+  Si29  1  0.00000000  0.00000000  0.74100000  1.0
  Si0+  Si30  1  0.50000000  0.50000000  0.75900000  1.0
  Si0+  Si31  1  0.00000000  0.00000000  0.25900000  1.0
  Si0+  Si32  1  0.97800000  0.68300000  0.50000000  1.0
  Si0+  Si33  1  0.02200000  0.31700000  0.50000000  1.0
  Si0+  Si34  1  0.52200000  0.18300000  0.00000000  1.0
  Si0+  Si35  1  0.47800000  0.81700000  0.00000000  1.0
  Si0+  Si36  1  0.68300000  0.02200000  0.50000000  1.0
  Si0+  Si37  1  0.31700000  0.97800000  0.50000000  1.0
  Si0+  Si38  1  0.18300000  0.47800000  0.00000000  1.0
  Si0+  Si39  1  0.81700000  0.52200000  0.00000000  1.0
