# generated using pymatgen
data_LaGa2Ni
_symmetry_space_group_name_H-M   'P 1'
_cell_length_a   4.29000000
_cell_length_b   17.83000000
_cell_length_c   4.27300000
_cell_angle_alpha   90.00000000
_cell_angle_beta   90.00000000
_cell_angle_gamma   90.00000000
_symmetry_Int_Tables_number   1
_chemical_formula_structural   LaGa2Ni
_chemical_formula_sum   'La4 Ga8 Ni4'
_cell_volume   326.84476110
_cell_formula_units_Z   4
loop_
 _symmetry_equiv_pos_site_id
 _symmetry_equiv_pos_as_xyz
  1  'x, y, z'
loop_
 _atom_type_symbol
 _atom_type_oxidation_number
  La0+  0.0
  Ga0+  0.0
  Ni0+  0.0
loop_
 _atom_site_type_symbol
 _atom_site_label
 _atom_site_symmetry_multiplicity
 _atom_site_fract_x
 _atom_site_fract_y
 _atom_site_fract_z
 _atom_site_occupancy
  La0+  La0  1  0.00000000  0.86400000  0.00000000  1.0
  La0+  La1  1  0.00000000  0.13600000  0.00000000  1.0
  La0+  La2  1  0.50000000  0.36400000  0.00000000  1.0
  La0+  La3  1  0.50000000  0.63600000  0.00000000  1.0
  Ga0+  Ga4  1  0.50000000  0.00000000  0.00000000  1.0
  Ga0+  Ga5  1  0.00000000  0.50000000  0.00000000  1.0
  Ga0+  Ga6  1  0.00000000  0.00000000  0.50000000  1.0
  Ga0+  Ga7  1  0.50000000  0.50000000  0.50000000  1.0
  Ga0+  Ga8  1  0.00000000  0.71200000  0.50000000  1.0
  Ga0+  Ga9  1  0.00000000  0.28800000  0.50000000  1.0
  Ga0+  Ga10  1  0.50000000  0.21200000  0.50000000  1.0
  Ga0+  Ga11  1  0.50000000  0.78800000  0.50000000  1.0
  Ni0+  Ni12  1  0.00000000  0.58400000  0.50000000  1.0
  Ni0+  Ni13  1  0.00000000  0.41600000  0.50000000  1.0
  Ni0+  Ni14  1  0.50000000  0.08400000  0.50000000  1.0
  Ni0+  Ni15  1  0.50000000  0.91600000  0.50000000  1.0
