# generated using pymatgen
data_KHg2
_symmetry_space_group_name_H-M   'P 1'
_cell_length_a   8.10000000
_cell_length_b   5.16000000
_cell_length_c   8.77000000
_cell_angle_alpha   90.00000000
_cell_angle_beta   90.00000000
_cell_angle_gamma   90.00000000
_symmetry_Int_Tables_number   1
_chemical_formula_structural   KHg2
_chemical_formula_sum   'K4 Hg8'
_cell_volume   366.55092000
_cell_formula_units_Z   4
loop_
 _symmetry_equiv_pos_site_id
 _symmetry_equiv_pos_as_xyz
  1  'x, y, z'
loop_
 _atom_type_symbol
 _atom_type_oxidation_number
  K0+  0.0
  Hg0+  0.0
loop_
 _atom_site_type_symbol
 _atom_site_label
 _atom_site_symmetry_multiplicity
 _atom_site_fract_x
 _atom_site_fract_y
 _atom_site_fract_z
 _atom_site_occupancy
  K0+  K0  1  0.00000000  0.75000000  0.29700000  1.0
  K0+  K1  1  0.00000000  0.25000000  0.70300000  1.0
  K0+  K2  1  0.50000000  0.25000000  0.79700000  1.0
  K0+  K3  1  0.50000000  0.75000000  0.20300000  1.0
  Hg0+  Hg4  1  0.81000000  0.75000000  0.91300000  1.0
  Hg0+  Hg5  1  0.81000000  0.25000000  0.08700000  1.0
  Hg0+  Hg6  1  0.19000000  0.25000000  0.08700000  1.0
  Hg0+  Hg7  1  0.19000000  0.75000000  0.91300000  1.0
  Hg0+  Hg8  1  0.31000000  0.25000000  0.41300000  1.0
  Hg0+  Hg9  1  0.31000000  0.75000000  0.58700000  1.0
  Hg0+  Hg10  1  0.69000000  0.75000000  0.58700000  1.0
  Hg0+  Hg11  1  0.69000000  0.25000000  0.41300000  1.0
