# generated using pymatgen
data_Lu5(Ge5Rh2)2
_symmetry_space_group_name_H-M   'P 1'
_cell_length_a   12.85000000
_cell_length_b   12.85000000
_cell_length_c   4.20800000
_cell_angle_alpha   90.00000000
_cell_angle_beta   90.00000000
_cell_angle_gamma   90.00000000
_symmetry_Int_Tables_number   1
_chemical_formula_structural   Lu5(Ge5Rh2)2
_chemical_formula_sum   'Lu10 Ge20 Rh8'
_cell_volume   694.83548000
_cell_formula_units_Z   2
loop_
 _symmetry_equiv_pos_site_id
 _symmetry_equiv_pos_as_xyz
  1  'x, y, z'
loop_
 _atom_type_symbol
 _atom_type_oxidation_number
  Lu0+  0.0
  Ge0+  0.0
  Rh0+  0.0
loop_
 _atom_site_type_symbol
 _atom_site_label
 _atom_site_symmetry_multiplicity
 _atom_site_fract_x
 _atom_site_fract_y
 _atom_site_fract_z
 _atom_site_occupancy
  Lu0+  Lu0  1  0.50000000  0.50000000  0.00000000  1.0
  Lu0+  Lu1  1  0.00000000  0.00000000  0.00000000  1.0
  Lu0+  Lu2  1  0.17500000  0.67500000  0.50000000  1.0
  Lu0+  Lu3  1  0.82500000  0.32500000  0.50000000  1.0
  Lu0+  Lu4  1  0.32500000  0.17500000  0.50000000  1.0
  Lu0+  Lu5  1  0.67500000  0.82500000  0.50000000  1.0
  Lu0+  Lu6  1  0.38700000  0.88700000  0.50000000  1.0
  Lu0+  Lu7  1  0.61300000  0.11300000  0.50000000  1.0
  Lu0+  Lu8  1  0.11300000  0.38700000  0.50000000  1.0
  Lu0+  Lu9  1  0.88700000  0.61300000  0.50000000  1.0
  Ge0+  Ge10  1  0.06800000  0.56800000  0.00000000  1.0
  Ge0+  Ge11  1  0.93200000  0.43200000  0.00000000  1.0
  Ge0+  Ge12  1  0.43200000  0.06800000  0.00000000  1.0
  Ge0+  Ge13  1  0.56800000  0.93200000  0.00000000  1.0
  Ge0+  Ge14  1  0.69800000  0.66400000  0.00000000  1.0
  Ge0+  Ge15  1  0.30200000  0.33600000  0.00000000  1.0
  Ge0+  Ge16  1  0.80200000  0.16400000  0.00000000  1.0
  Ge0+  Ge17  1  0.19800000  0.83600000  0.00000000  1.0
  Ge0+  Ge18  1  0.66400000  0.30200000  0.00000000  1.0
  Ge0+  Ge19  1  0.33600000  0.69800000  0.00000000  1.0
  Ge0+  Ge20  1  0.16400000  0.19800000  0.00000000  1.0
  Ge0+  Ge21  1  0.83600000  0.80200000  0.00000000  1.0
  Ge0+  Ge22  1  0.50800000  0.65800000  0.50000000  1.0
  Ge0+  Ge23  1  0.49200000  0.34200000  0.50000000  1.0
  Ge0+  Ge24  1  0.99200000  0.15800000  0.50000000  1.0
  Ge0+  Ge25  1  0.00800000  0.84200000  0.50000000  1.0
  Ge0+  Ge26  1  0.65800000  0.49200000  0.50000000  1.0
  Ge0+  Ge27  1  0.34200000  0.50800000  0.50000000  1.0
  Ge0+  Ge28  1  0.15800000  0.00800000  0.50000000  1.0
  Ge0+  Ge29  1  0.84200000  0.99200000  0.50000000  1.0
  Rh0+  Rh30  1  0.52100000  0.74600000  0.00000000  1.0
  Rh0+  Rh31  1  0.47900000  0.25400000  0.00000000  1.0
  Rh0+  Rh32  1  0.97900000  0.24600000  0.00000000  1.0
  Rh0+  Rh33  1  0.02100000  0.75400000  0.00000000  1.0
  Rh0+  Rh34  1  0.74600000  0.47900000  0.00000000  1.0
  Rh0+  Rh35  1  0.25400000  0.52100000  0.00000000  1.0
  Rh0+  Rh36  1  0.24600000  0.02100000  0.00000000  1.0
  Rh0+  Rh37  1  0.75400000  0.97900000  0.00000000  1.0
