# generated using pymatgen
data_Lu3Ge13Ru4
_symmetry_space_group_name_H-M   'P 1'
_cell_length_a   8.91100000
_cell_length_b   8.91100000
_cell_length_c   8.91100000
_cell_angle_alpha   90.00000000
_cell_angle_beta   90.00000000
_cell_angle_gamma   90.00000000
_symmetry_Int_Tables_number   1
_chemical_formula_structural   Lu3Ge13Ru4
_chemical_formula_sum   'Lu6 Ge26 Ru8'
_cell_volume   707.58616203
_cell_formula_units_Z   2
loop_
 _symmetry_equiv_pos_site_id
 _symmetry_equiv_pos_as_xyz
  1  'x, y, z'
loop_
 _atom_type_symbol
 _atom_type_oxidation_number
  Lu0+  0.0
  Ge0+  0.0
  Ru0+  0.0
loop_
 _atom_site_type_symbol
 _atom_site_label
 _atom_site_symmetry_multiplicity
 _atom_site_fract_x
 _atom_site_fract_y
 _atom_site_fract_z
 _atom_site_occupancy
  Lu0+  Lu0  1  0.00000000  0.50000000  0.75000000  1.0
  Lu0+  Lu1  1  0.50000000  0.25000000  0.00000000  1.0
  Lu0+  Lu2  1  0.75000000  0.00000000  0.50000000  1.0
  Lu0+  Lu3  1  0.00000000  0.50000000  0.25000000  1.0
  Lu0+  Lu4  1  0.50000000  0.75000000  0.00000000  1.0
  Lu0+  Lu5  1  0.25000000  0.00000000  0.50000000  1.0
  Ge0+  Ge6  1  0.50000000  0.50000000  0.50000000  1.0
  Ge0+  Ge7  1  0.00000000  0.00000000  0.00000000  1.0
  Ge0+  Ge8  1  0.81200000  0.34300000  0.50000000  1.0
  Ge0+  Ge9  1  0.65700000  0.50000000  0.81200000  1.0
  Ge0+  Ge10  1  0.50000000  0.18800000  0.65700000  1.0
  Ge0+  Ge11  1  0.18800000  0.65700000  0.50000000  1.0
  Ge0+  Ge12  1  0.34300000  0.50000000  0.18800000  1.0
  Ge0+  Ge13  1  0.50000000  0.81200000  0.34300000  1.0
  Ge0+  Ge14  1  0.81200000  0.65700000  0.50000000  1.0
  Ge0+  Ge15  1  0.65700000  0.50000000  0.18800000  1.0
  Ge0+  Ge16  1  0.18800000  0.34300000  0.50000000  1.0
  Ge0+  Ge17  1  0.34300000  0.50000000  0.81200000  1.0
  Ge0+  Ge18  1  0.50000000  0.81200000  0.65700000  1.0
  Ge0+  Ge19  1  0.50000000  0.18800000  0.34300000  1.0
  Ge0+  Ge20  1  0.31200000  0.00000000  0.84300000  1.0
  Ge0+  Ge21  1  0.15700000  0.31200000  0.00000000  1.0
  Ge0+  Ge22  1  0.00000000  0.15700000  0.68800000  1.0
  Ge0+  Ge23  1  0.68800000  0.00000000  0.15700000  1.0
  Ge0+  Ge24  1  0.84300000  0.68800000  0.00000000  1.0
  Ge0+  Ge25  1  0.00000000  0.84300000  0.31200000  1.0
  Ge0+  Ge26  1  0.31200000  0.00000000  0.15700000  1.0
  Ge0+  Ge27  1  0.15700000  0.68800000  0.00000000  1.0
  Ge0+  Ge28  1  0.68800000  0.00000000  0.84300000  1.0
  Ge0+  Ge29  1  0.84300000  0.31200000  0.00000000  1.0
  Ge0+  Ge30  1  0.00000000  0.15700000  0.31200000  1.0
  Ge0+  Ge31  1  0.00000000  0.84300000  0.68800000  1.0
  Ru0+  Ru32  1  0.75000000  0.25000000  0.75000000  1.0
  Ru0+  Ru33  1  0.25000000  0.75000000  0.25000000  1.0
  Ru0+  Ru34  1  0.75000000  0.75000000  0.25000000  1.0
  Ru0+  Ru35  1  0.25000000  0.25000000  0.75000000  1.0
  Ru0+  Ru36  1  0.25000000  0.75000000  0.75000000  1.0
  Ru0+  Ru37  1  0.75000000  0.25000000  0.25000000  1.0
  Ru0+  Ru38  1  0.25000000  0.25000000  0.25000000  1.0
  Ru0+  Ru39  1  0.75000000  0.75000000  0.75000000  1.0
