# generated using pymatgen
data_La7Ir3
_symmetry_space_group_name_H-M   'P 1'
_cell_length_a   10.23000000
_cell_length_b   10.23000000
_cell_length_c   6.47800000
_cell_angle_alpha   90.00000000
_cell_angle_beta   90.00000000
_cell_angle_gamma   120.00000000
_symmetry_Int_Tables_number   1
_chemical_formula_structural   La7Ir3
_chemical_formula_sum   'La14 Ir6'
_cell_volume   587.11454933
_cell_formula_units_Z   2
loop_
 _symmetry_equiv_pos_site_id
 _symmetry_equiv_pos_as_xyz
  1  'x, y, z'
loop_
 _atom_type_symbol
 _atom_type_oxidation_number
  La0+  0.0
  Ir0+  0.0
loop_
 _atom_site_type_symbol
 _atom_site_label
 _atom_site_symmetry_multiplicity
 _atom_site_fract_x
 _atom_site_fract_y
 _atom_site_fract_z
 _atom_site_occupancy
  La0+  La0  1  0.66666667  0.33333333  0.56000000  1.0
  La0+  La1  1  0.33333333  0.66666667  0.06000000  1.0
  La0+  La2  1  0.87500000  0.75000000  0.75000000  1.0
  La0+  La3  1  0.25000000  0.12500000  0.75000000  1.0
  La0+  La4  1  0.87500000  0.12500000  0.75000000  1.0
  La0+  La5  1  0.12500000  0.25000000  0.25000000  1.0
  La0+  La6  1  0.75000000  0.87500000  0.25000000  1.0
  La0+  La7  1  0.12500000  0.87500000  0.25000000  1.0
  La0+  La8  1  0.46000000  0.92000000  0.55000000  1.0
  La0+  La9  1  0.08000000  0.54000000  0.55000000  1.0
  La0+  La10  1  0.46000000  0.54000000  0.55000000  1.0
  La0+  La11  1  0.54000000  0.08000000  0.05000000  1.0
  La0+  La12  1  0.92000000  0.46000000  0.05000000  1.0
  La0+  La13  1  0.54000000  0.46000000  0.05000000  1.0
  Ir0+  Ir14  1  0.19000000  0.38000000  0.81300000  1.0
  Ir0+  Ir15  1  0.62000000  0.81000000  0.81300000  1.0
  Ir0+  Ir16  1  0.19000000  0.81000000  0.81300000  1.0
  Ir0+  Ir17  1  0.81000000  0.62000000  0.31300000  1.0
  Ir0+  Ir18  1  0.38000000  0.19000000  0.31300000  1.0
  Ir0+  Ir19  1  0.81000000  0.19000000  0.31300000  1.0
