# generated using pymatgen
data_Lu5(Si5Ir2)2
_symmetry_space_group_name_H-M   'P 1'
_cell_length_a   12.47500000
_cell_length_b   12.47500000
_cell_length_c   4.17100000
_cell_angle_alpha   90.00000000
_cell_angle_beta   90.00000000
_cell_angle_gamma   90.00000000
_symmetry_Int_Tables_number   1
_chemical_formula_structural   Lu5(Si5Ir2)2
_chemical_formula_sum   'Lu10 Si20 Ir8'
_cell_volume   649.11448188
_cell_formula_units_Z   2
loop_
 _symmetry_equiv_pos_site_id
 _symmetry_equiv_pos_as_xyz
  1  'x, y, z'
loop_
 _atom_type_symbol
 _atom_type_oxidation_number
  Lu0+  0.0
  Si0+  0.0
  Ir0+  0.0
loop_
 _atom_site_type_symbol
 _atom_site_label
 _atom_site_symmetry_multiplicity
 _atom_site_fract_x
 _atom_site_fract_y
 _atom_site_fract_z
 _atom_site_occupancy
  Lu0+  Lu0  1  0.50000000  0.50000000  0.00000000  1.0
  Lu0+  Lu1  1  0.00000000  0.00000000  0.00000000  1.0
  Lu0+  Lu2  1  0.17400000  0.67400000  0.50000000  1.0
  Lu0+  Lu3  1  0.82600000  0.32600000  0.50000000  1.0
  Lu0+  Lu4  1  0.32600000  0.17400000  0.50000000  1.0
  Lu0+  Lu5  1  0.67400000  0.82600000  0.50000000  1.0
  Lu0+  Lu6  1  0.38500000  0.88500000  0.50000000  1.0
  Lu0+  Lu7  1  0.61500000  0.11500000  0.50000000  1.0
  Lu0+  Lu8  1  0.11500000  0.38500000  0.50000000  1.0
  Lu0+  Lu9  1  0.88500000  0.61500000  0.50000000  1.0
  Si0+  Si10  1  0.06300000  0.56300000  0.00000000  1.0
  Si0+  Si11  1  0.93700000  0.43700000  0.00000000  1.0
  Si0+  Si12  1  0.43700000  0.06300000  0.00000000  1.0
  Si0+  Si13  1  0.56300000  0.93700000  0.00000000  1.0
  Si0+  Si14  1  0.70000000  0.66300000  0.00000000  1.0
  Si0+  Si15  1  0.30000000  0.33700000  0.00000000  1.0
  Si0+  Si16  1  0.80000000  0.16300000  0.00000000  1.0
  Si0+  Si17  1  0.20000000  0.83700000  0.00000000  1.0
  Si0+  Si18  1  0.66300000  0.30000000  0.00000000  1.0
  Si0+  Si19  1  0.33700000  0.70000000  0.00000000  1.0
  Si0+  Si20  1  0.16300000  0.20000000  0.00000000  1.0
  Si0+  Si21  1  0.83700000  0.80000000  0.00000000  1.0
  Si0+  Si22  1  0.50400000  0.65600000  0.50000000  1.0
  Si0+  Si23  1  0.49600000  0.34400000  0.50000000  1.0
  Si0+  Si24  1  0.99600000  0.15600000  0.50000000  1.0
  Si0+  Si25  1  0.00400000  0.84400000  0.50000000  1.0
  Si0+  Si26  1  0.65600000  0.49600000  0.50000000  1.0
  Si0+  Si27  1  0.34400000  0.50400000  0.50000000  1.0
  Si0+  Si28  1  0.15600000  0.00400000  0.50000000  1.0
  Si0+  Si29  1  0.84400000  0.99600000  0.50000000  1.0
  Ir0+  Ir30  1  0.51900000  0.74500000  0.00000000  1.0
  Ir0+  Ir31  1  0.48100000  0.25500000  0.00000000  1.0
  Ir0+  Ir32  1  0.98100000  0.24500000  0.00000000  1.0
  Ir0+  Ir33  1  0.01900000  0.75500000  0.00000000  1.0
  Ir0+  Ir34  1  0.74500000  0.48100000  0.00000000  1.0
  Ir0+  Ir35  1  0.25500000  0.51900000  0.00000000  1.0
  Ir0+  Ir36  1  0.24500000  0.01900000  0.00000000  1.0
  Ir0+  Ir37  1  0.75500000  0.98100000  0.00000000  1.0
