# generated using pymatgen
data_La3Ni
_symmetry_space_group_name_H-M   'P 1'
_cell_length_a   6.60100000
_cell_length_b   7.22000000
_cell_length_c   5.11000000
_cell_angle_alpha   90.00000000
_cell_angle_beta   90.00000000
_cell_angle_gamma   90.00000000
_symmetry_Int_Tables_number   1
_chemical_formula_structural   La3Ni
_chemical_formula_sum   'La12 Ni4'
_cell_volume   243.53861420
_cell_formula_units_Z   4
loop_
 _symmetry_equiv_pos_site_id
 _symmetry_equiv_pos_as_xyz
  1  'x, y, z'
loop_
 _atom_type_symbol
 _atom_type_oxidation_number
  La0+  0.0
  Ni0+  0.0
loop_
 _atom_site_type_symbol
 _atom_site_label
 _atom_site_symmetry_multiplicity
 _atom_site_fract_x
 _atom_site_fract_y
 _atom_site_fract_z
 _atom_site_occupancy
  La0+  La0  1  0.51100000  0.25000000  0.58500000  1.0
  La0+  La1  1  0.01100000  0.25000000  0.91500000  1.0
  La0+  La2  1  0.48900000  0.75000000  0.41500000  1.0
  La0+  La3  1  0.98900000  0.75000000  0.08500000  1.0
  La0+  La4  1  0.67400000  0.05300000  0.14400000  1.0
  La0+  La5  1  0.17400000  0.44700000  0.35600000  1.0
  La0+  La6  1  0.32600000  0.55300000  0.85600000  1.0
  La0+  La7  1  0.82600000  0.94700000  0.64400000  1.0
  La0+  La8  1  0.32600000  0.94700000  0.85600000  1.0
  La0+  La9  1  0.82600000  0.55300000  0.64400000  1.0
  La0+  La10  1  0.67400000  0.44700000  0.14400000  1.0
  La0+  La11  1  0.17400000  0.05300000  0.35600000  1.0
  Ni0+  Ni12  1  0.36900000  0.25000000  0.05500000  1.0
  Ni0+  Ni13  1  0.86900000  0.25000000  0.44500000  1.0
  Ni0+  Ni14  1  0.63100000  0.75000000  0.94500000  1.0
  Ni0+  Ni15  1  0.13100000  0.75000000  0.55500000  1.0
