# generated using pymatgen
data_LaNiSn
_symmetry_space_group_name_H-M   'P 1'
_cell_length_a   7.63600000
_cell_length_b   4.66100000
_cell_length_c   7.55200000
_cell_angle_alpha   90.00000000
_cell_angle_beta   90.00000000
_cell_angle_gamma   90.00000000
_symmetry_Int_Tables_number   1
_chemical_formula_structural   LaNiSn
_chemical_formula_sum   'La4 Ni4 Sn4'
_cell_volume   268.78622259
_cell_formula_units_Z   4
loop_
 _symmetry_equiv_pos_site_id
 _symmetry_equiv_pos_as_xyz
  1  'x, y, z'
loop_
 _atom_type_symbol
 _atom_type_oxidation_number
  La0+  0.0
  Ni0+  0.0
  Sn0+  0.0
loop_
 _atom_site_type_symbol
 _atom_site_label
 _atom_site_symmetry_multiplicity
 _atom_site_fract_x
 _atom_site_fract_y
 _atom_site_fract_z
 _atom_site_occupancy
  La0+  La0  1  0.51300000  0.25000000  0.80000000  1.0
  La0+  La1  1  0.01300000  0.25000000  0.70000000  1.0
  La0+  La2  1  0.48700000  0.75000000  0.20000000  1.0
  La0+  La3  1  0.98700000  0.75000000  0.30000000  1.0
  Ni0+  Ni4  1  0.80100000  0.25000000  0.08500000  1.0
  Ni0+  Ni5  1  0.30100000  0.25000000  0.41500000  1.0
  Ni0+  Ni6  1  0.19900000  0.75000000  0.91500000  1.0
  Ni0+  Ni7  1  0.69900000  0.75000000  0.58500000  1.0
  Sn0+  Sn8  1  0.68500000  0.25000000  0.41300000  1.0
  Sn0+  Sn9  1  0.18500000  0.25000000  0.08700000  1.0
  Sn0+  Sn10  1  0.31500000  0.75000000  0.58700000  1.0
  Sn0+  Sn11  1  0.81500000  0.75000000  0.91300000  1.0
