# generated using pymatgen
data_La(P3Ru)4
_symmetry_space_group_name_H-M   'P 1'
_cell_length_a   8.05610000
_cell_length_b   8.05610000
_cell_length_c   8.05610000
_cell_angle_alpha   90.00000000
_cell_angle_beta   90.00000000
_cell_angle_gamma   90.00000000
_symmetry_Int_Tables_number   1
_chemical_formula_structural   La(P3Ru)4
_chemical_formula_sum   'La2 P24 Ru8'
_cell_volume   522.84690960
_cell_formula_units_Z   2
loop_
 _symmetry_equiv_pos_site_id
 _symmetry_equiv_pos_as_xyz
  1  'x, y, z'
loop_
 _atom_type_symbol
 _atom_type_oxidation_number
  La3+  3.0
  P1.25-  -1.25
  Ru3+  3.0
loop_
 _atom_site_type_symbol
 _atom_site_label
 _atom_site_symmetry_multiplicity
 _atom_site_fract_x
 _atom_site_fract_y
 _atom_site_fract_z
 _atom_site_occupancy
  La3+  La0  1  0.00000000  0.00000000  0.00000000  1.0
  La3+  La1  1  0.50000000  0.50000000  0.50000000  1.0
  P1.25-  P2  1  0.64100000  0.00000000  0.14300000  1.0
  P1.25-  P3  1  0.35900000  0.00000000  0.85700000  1.0
  P1.25-  P4  1  0.35900000  0.00000000  0.14300000  1.0
  P1.25-  P5  1  0.64100000  0.00000000  0.85700000  1.0
  P1.25-  P6  1  0.14300000  0.64100000  0.00000000  1.0
  P1.25-  P7  1  0.85700000  0.35900000  0.00000000  1.0
  P1.25-  P8  1  0.14300000  0.35900000  0.00000000  1.0
  P1.25-  P9  1  0.85700000  0.64100000  0.00000000  1.0
  P1.25-  P10  1  0.00000000  0.14300000  0.64100000  1.0
  P1.25-  P11  1  0.00000000  0.85700000  0.35900000  1.0
  P1.25-  P12  1  0.00000000  0.14300000  0.35900000  1.0
  P1.25-  P13  1  0.00000000  0.85700000  0.64100000  1.0
  P1.25-  P14  1  0.14100000  0.50000000  0.64300000  1.0
  P1.25-  P15  1  0.85900000  0.50000000  0.35700000  1.0
  P1.25-  P16  1  0.85900000  0.50000000  0.64300000  1.0
  P1.25-  P17  1  0.14100000  0.50000000  0.35700000  1.0
  P1.25-  P18  1  0.64300000  0.14100000  0.50000000  1.0
  P1.25-  P19  1  0.35700000  0.85900000  0.50000000  1.0
  P1.25-  P20  1  0.64300000  0.85900000  0.50000000  1.0
  P1.25-  P21  1  0.35700000  0.14100000  0.50000000  1.0
  P1.25-  P22  1  0.50000000  0.64300000  0.14100000  1.0
  P1.25-  P23  1  0.50000000  0.35700000  0.85900000  1.0
  P1.25-  P24  1  0.50000000  0.64300000  0.85900000  1.0
  P1.25-  P25  1  0.50000000  0.35700000  0.14100000  1.0
  Ru3+  Ru26  1  0.75000000  0.25000000  0.25000000  1.0
  Ru3+  Ru27  1  0.25000000  0.25000000  0.75000000  1.0
  Ru3+  Ru28  1  0.25000000  0.75000000  0.25000000  1.0
  Ru3+  Ru29  1  0.75000000  0.75000000  0.75000000  1.0
  Ru3+  Ru30  1  0.25000000  0.75000000  0.75000000  1.0
  Ru3+  Ru31  1  0.75000000  0.75000000  0.25000000  1.0
  Ru3+  Ru32  1  0.75000000  0.25000000  0.75000000  1.0
  Ru3+  Ru33  1  0.25000000  0.25000000  0.25000000  1.0
