# generated using pymatgen
data_La3Rh4Pb13
_symmetry_space_group_name_H-M   'P 1'
_cell_length_a   10.03100000
_cell_length_b   10.03100000
_cell_length_c   10.03100000
_cell_angle_alpha   90.00000000
_cell_angle_beta   90.00000000
_cell_angle_gamma   90.00000000
_symmetry_Int_Tables_number   1
_chemical_formula_structural   La3Rh4Pb13
_chemical_formula_sum   'La6 Rh8 Pb26'
_cell_volume   1009.32885979
_cell_formula_units_Z   2
loop_
 _symmetry_equiv_pos_site_id
 _symmetry_equiv_pos_as_xyz
  1  'x, y, z'
loop_
 _atom_type_symbol
 _atom_type_oxidation_number
  La0+  0.0
  Rh0+  0.0
  Pb0+  0.0
loop_
 _atom_site_type_symbol
 _atom_site_label
 _atom_site_symmetry_multiplicity
 _atom_site_fract_x
 _atom_site_fract_y
 _atom_site_fract_z
 _atom_site_occupancy
  La0+  La0  1  0.00000000  0.50000000  0.75000000  1.0
  La0+  La1  1  0.50000000  0.25000000  0.00000000  1.0
  La0+  La2  1  0.75000000  0.00000000  0.50000000  1.0
  La0+  La3  1  0.00000000  0.50000000  0.25000000  1.0
  La0+  La4  1  0.50000000  0.75000000  0.00000000  1.0
  La0+  La5  1  0.25000000  0.00000000  0.50000000  1.0
  Rh0+  Rh6  1  0.75000000  0.25000000  0.75000000  1.0
  Rh0+  Rh7  1  0.25000000  0.75000000  0.25000000  1.0
  Rh0+  Rh8  1  0.75000000  0.75000000  0.25000000  1.0
  Rh0+  Rh9  1  0.25000000  0.25000000  0.75000000  1.0
  Rh0+  Rh10  1  0.25000000  0.75000000  0.75000000  1.0
  Rh0+  Rh11  1  0.75000000  0.25000000  0.25000000  1.0
  Rh0+  Rh12  1  0.25000000  0.25000000  0.25000000  1.0
  Rh0+  Rh13  1  0.75000000  0.75000000  0.75000000  1.0
  Pb0+  Pb14  1  0.50000000  0.50000000  0.50000000  1.0
  Pb0+  Pb15  1  0.00000000  0.00000000  0.00000000  1.0
  Pb0+  Pb16  1  0.80900000  0.34600000  0.50000000  1.0
  Pb0+  Pb17  1  0.65400000  0.50000000  0.80900000  1.0
  Pb0+  Pb18  1  0.50000000  0.19100000  0.65400000  1.0
  Pb0+  Pb19  1  0.19100000  0.65400000  0.50000000  1.0
  Pb0+  Pb20  1  0.34600000  0.50000000  0.19100000  1.0
  Pb0+  Pb21  1  0.50000000  0.80900000  0.34600000  1.0
  Pb0+  Pb22  1  0.80900000  0.65400000  0.50000000  1.0
  Pb0+  Pb23  1  0.65400000  0.50000000  0.19100000  1.0
  Pb0+  Pb24  1  0.19100000  0.34600000  0.50000000  1.0
  Pb0+  Pb25  1  0.34600000  0.50000000  0.80900000  1.0
  Pb0+  Pb26  1  0.50000000  0.80900000  0.65400000  1.0
  Pb0+  Pb27  1  0.50000000  0.19100000  0.34600000  1.0
  Pb0+  Pb28  1  0.30900000  0.00000000  0.84600000  1.0
  Pb0+  Pb29  1  0.15400000  0.30900000  0.00000000  1.0
  Pb0+  Pb30  1  0.00000000  0.15400000  0.69100000  1.0
  Pb0+  Pb31  1  0.69100000  0.00000000  0.15400000  1.0
  Pb0+  Pb32  1  0.84600000  0.69100000  0.00000000  1.0
  Pb0+  Pb33  1  0.00000000  0.84600000  0.30900000  1.0
  Pb0+  Pb34  1  0.30900000  0.00000000  0.15400000  1.0
  Pb0+  Pb35  1  0.15400000  0.69100000  0.00000000  1.0
  Pb0+  Pb36  1  0.69100000  0.00000000  0.84600000  1.0
  Pb0+  Pb37  1  0.84600000  0.30900000  0.00000000  1.0
  Pb0+  Pb38  1  0.00000000  0.15400000  0.30900000  1.0
  Pb0+  Pb39  1  0.00000000  0.84600000  0.69100000  1.0
