# generated using pymatgen
data_LaSiRh
_symmetry_space_group_name_H-M   'P 1'
_cell_length_a   6.29600000
_cell_length_b   6.29600000
_cell_length_c   6.29600000
_cell_angle_alpha   90.00000000
_cell_angle_beta   90.00000000
_cell_angle_gamma   90.00000000
_symmetry_Int_Tables_number   1
_chemical_formula_structural   LaSiRh
_chemical_formula_sum   'La4 Si4 Rh4'
_cell_volume   249.57102234
_cell_formula_units_Z   4
loop_
 _symmetry_equiv_pos_site_id
 _symmetry_equiv_pos_as_xyz
  1  'x, y, z'
loop_
 _atom_type_symbol
 _atom_type_oxidation_number
  La0+  0.0
  Si0+  0.0
  Rh0+  0.0
loop_
 _atom_site_type_symbol
 _atom_site_label
 _atom_site_symmetry_multiplicity
 _atom_site_fract_x
 _atom_site_fract_y
 _atom_site_fract_z
 _atom_site_occupancy
  La0+  La0  1  0.36700000  0.86700000  0.63300000  1.0
  La0+  La1  1  0.86700000  0.63300000  0.36700000  1.0
  La0+  La2  1  0.63300000  0.36700000  0.86700000  1.0
  La0+  La3  1  0.13300000  0.13300000  0.13300000  1.0
  Si0+  Si4  1  0.66100000  0.16100000  0.33900000  1.0
  Si0+  Si5  1  0.16100000  0.33900000  0.66100000  1.0
  Si0+  Si6  1  0.33900000  0.66100000  0.16100000  1.0
  Si0+  Si7  1  0.83900000  0.83900000  0.83900000  1.0
  Rh0+  Rh8  1  0.07700000  0.57700000  0.92300000  1.0
  Rh0+  Rh9  1  0.57700000  0.92300000  0.07700000  1.0
  Rh0+  Rh10  1  0.92300000  0.07700000  0.57700000  1.0
  Rh0+  Rh11  1  0.42300000  0.42300000  0.42300000  1.0
