# generated using pymatgen
data_La3Ru
_symmetry_space_group_name_H-M   'P 1'
_cell_length_a   7.46800000
_cell_length_b   10.03200000
_cell_length_c   6.55500000
_cell_angle_alpha   90.00000000
_cell_angle_beta   90.00000000
_cell_angle_gamma   90.00000000
_symmetry_Int_Tables_number   1
_chemical_formula_structural   La3Ru
_chemical_formula_sum   'La12 Ru4'
_cell_volume   491.09388768
_cell_formula_units_Z   4
loop_
 _symmetry_equiv_pos_site_id
 _symmetry_equiv_pos_as_xyz
  1  'x, y, z'
loop_
 _atom_type_symbol
 _atom_type_oxidation_number
  La0+  0.0
  Ru0+  0.0
loop_
 _atom_site_type_symbol
 _atom_site_label
 _atom_site_symmetry_multiplicity
 _atom_site_fract_x
 _atom_site_fract_y
 _atom_site_fract_z
 _atom_site_occupancy
  La0+  La0  1  0.67200000  0.06500000  0.33200000  1.0
  La0+  La1  1  0.17200000  0.43500000  0.16800000  1.0
  La0+  La2  1  0.32800000  0.56500000  0.66800000  1.0
  La0+  La3  1  0.82800000  0.93500000  0.83200000  1.0
  La0+  La4  1  0.32800000  0.93500000  0.66800000  1.0
  La0+  La5  1  0.82800000  0.56500000  0.83200000  1.0
  La0+  La6  1  0.67200000  0.43500000  0.33200000  1.0
  La0+  La7  1  0.17200000  0.06500000  0.16800000  1.0
  La0+  La8  1  0.54700000  0.25000000  0.85200000  1.0
  La0+  La9  1  0.04700000  0.25000000  0.64800000  1.0
  La0+  La10  1  0.45300000  0.75000000  0.14800000  1.0
  La0+  La11  1  0.95300000  0.75000000  0.35200000  1.0
  Ru0+  Ru12  1  0.87000000  0.25000000  0.03300000  1.0
  Ru0+  Ru13  1  0.37000000  0.25000000  0.46700000  1.0
  Ru0+  Ru14  1  0.13000000  0.75000000  0.96700000  1.0
  Ru0+  Ru15  1  0.63000000  0.75000000  0.53300000  1.0
