# generated using pymatgen
data_La7Ru3
_symmetry_space_group_name_H-M   'P 1'
_cell_length_a   7.42200000
_cell_length_b   23.56200000
_cell_length_c   6.73200000
_cell_angle_alpha   90.00000000
_cell_angle_beta   90.00000000
_cell_angle_gamma   90.00000000
_symmetry_Int_Tables_number   1
_chemical_formula_structural   La7Ru3
_chemical_formula_sum   'La28 Ru12'
_cell_volume   1177.27306805
_cell_formula_units_Z   4
loop_
 _symmetry_equiv_pos_site_id
 _symmetry_equiv_pos_as_xyz
  1  'x, y, z'
loop_
 _atom_type_symbol
 _atom_type_oxidation_number
  La0+  0.0
  Ru0+  0.0
loop_
 _atom_site_type_symbol
 _atom_site_label
 _atom_site_symmetry_multiplicity
 _atom_site_fract_x
 _atom_site_fract_y
 _atom_site_fract_z
 _atom_site_occupancy
  La0+  La0  1  0.82100000  0.17400000  0.31700000  1.0
  La0+  La1  1  0.32100000  0.32600000  0.18300000  1.0
  La0+  La2  1  0.17900000  0.67400000  0.68300000  1.0
  La0+  La3  1  0.67900000  0.82600000  0.81700000  1.0
  La0+  La4  1  0.17900000  0.82600000  0.68300000  1.0
  La0+  La5  1  0.67900000  0.67400000  0.81700000  1.0
  La0+  La6  1  0.82100000  0.32600000  0.31700000  1.0
  La0+  La7  1  0.32100000  0.17400000  0.18300000  1.0
  La0+  La8  1  0.83000000  0.02200000  0.31900000  1.0
  La0+  La9  1  0.33000000  0.47800000  0.18100000  1.0
  La0+  La10  1  0.17000000  0.52200000  0.68100000  1.0
  La0+  La11  1  0.67000000  0.97800000  0.81900000  1.0
  La0+  La12  1  0.17000000  0.97800000  0.68100000  1.0
  La0+  La13  1  0.67000000  0.52200000  0.81900000  1.0
  La0+  La14  1  0.83000000  0.47800000  0.31900000  1.0
  La0+  La15  1  0.33000000  0.02200000  0.18100000  1.0
  La0+  La16  1  0.67600000  0.25000000  0.85600000  1.0
  La0+  La17  1  0.17600000  0.25000000  0.64400000  1.0
  La0+  La18  1  0.32400000  0.75000000  0.14400000  1.0
  La0+  La19  1  0.82400000  0.75000000  0.35600000  1.0
  La0+  La20  1  0.95900000  0.11600000  0.84900000  1.0
  La0+  La21  1  0.45900000  0.38400000  0.65100000  1.0
  La0+  La22  1  0.04100000  0.61600000  0.15100000  1.0
  La0+  La23  1  0.54100000  0.88400000  0.34900000  1.0
  La0+  La24  1  0.04100000  0.88400000  0.15100000  1.0
  La0+  La25  1  0.54100000  0.61600000  0.34900000  1.0
  La0+  La26  1  0.95900000  0.38400000  0.84900000  1.0
  La0+  La27  1  0.45900000  0.11600000  0.65100000  1.0
  Ru0+  Ru28  1  0.52300000  0.25000000  0.46400000  1.0
  Ru0+  Ru29  1  0.02300000  0.25000000  0.03600000  1.0
  Ru0+  Ru30  1  0.47700000  0.75000000  0.53600000  1.0
  Ru0+  Ru31  1  0.97700000  0.75000000  0.96400000  1.0
  Ru0+  Ru32  1  0.61800000  0.09700000  0.03800000  1.0
  Ru0+  Ru33  1  0.11800000  0.40300000  0.46200000  1.0
  Ru0+  Ru34  1  0.38200000  0.59700000  0.96200000  1.0
  Ru0+  Ru35  1  0.88200000  0.90300000  0.53800000  1.0
  Ru0+  Ru36  1  0.38200000  0.90300000  0.96200000  1.0
  Ru0+  Ru37  1  0.88200000  0.59700000  0.53800000  1.0
  Ru0+  Ru38  1  0.61800000  0.40300000  0.03800000  1.0
  Ru0+  Ru39  1  0.11800000  0.09700000  0.46200000  1.0
