# generated using pymatgen
data_La5Ru2
_symmetry_space_group_name_H-M   'P 1'
_cell_length_a   16.79200000
_cell_length_b   6.67000000
_cell_length_c   7.42400000
_cell_angle_alpha   90.00000000
_cell_angle_beta   95.79000000
_cell_angle_gamma   90.00000000
_symmetry_Int_Tables_number   1
_chemical_formula_structural   La5Ru2
_chemical_formula_sum   'La20 Ru8'
_cell_volume   827.26552309
_cell_formula_units_Z   4
loop_
 _symmetry_equiv_pos_site_id
 _symmetry_equiv_pos_as_xyz
  1  'x, y, z'
loop_
 _atom_type_symbol
 _atom_type_oxidation_number
  La0+  0.0
  Ru0+  0.0
loop_
 _atom_site_type_symbol
 _atom_site_label
 _atom_site_symmetry_multiplicity
 _atom_site_fract_x
 _atom_site_fract_y
 _atom_site_fract_z
 _atom_site_occupancy
  La0+  La0  1  0.09300000  0.88400000  0.91600000  1.0
  La0+  La1  1  0.90700000  0.88400000  0.58400000  1.0
  La0+  La2  1  0.90700000  0.11600000  0.08400000  1.0
  La0+  La3  1  0.09300000  0.11600000  0.41600000  1.0
  La0+  La4  1  0.59300000  0.38400000  0.91600000  1.0
  La0+  La5  1  0.40700000  0.38400000  0.58400000  1.0
  La0+  La6  1  0.40700000  0.61600000  0.08400000  1.0
  La0+  La7  1  0.59300000  0.61600000  0.41600000  1.0
  La0+  La8  1  0.21800000  0.42300000  0.81400000  1.0
  La0+  La9  1  0.78200000  0.42300000  0.68600000  1.0
  La0+  La10  1  0.78200000  0.57700000  0.18600000  1.0
  La0+  La11  1  0.21800000  0.57700000  0.31400000  1.0
  La0+  La12  1  0.71800000  0.92300000  0.81400000  1.0
  La0+  La13  1  0.28200000  0.92300000  0.68600000  1.0
  La0+  La14  1  0.28200000  0.07700000  0.18600000  1.0
  La0+  La15  1  0.71800000  0.07700000  0.31400000  1.0
  La0+  La16  1  0.00000000  0.41600000  0.75000000  1.0
  La0+  La17  1  0.00000000  0.58400000  0.25000000  1.0
  La0+  La18  1  0.50000000  0.91600000  0.75000000  1.0
  La0+  La19  1  0.50000000  0.08400000  0.25000000  1.0
  Ru0+  Ru20  1  0.11000000  0.71100000  0.57600000  1.0
  Ru0+  Ru21  1  0.89000000  0.71100000  0.92400000  1.0
  Ru0+  Ru22  1  0.89000000  0.28900000  0.42400000  1.0
  Ru0+  Ru23  1  0.11000000  0.28900000  0.07600000  1.0
  Ru0+  Ru24  1  0.61000000  0.21100000  0.57600000  1.0
  Ru0+  Ru25  1  0.39000000  0.21100000  0.92400000  1.0
  Ru0+  Ru26  1  0.39000000  0.78900000  0.42400000  1.0
  Ru0+  Ru27  1  0.61000000  0.78900000  0.07600000  1.0
