# generated using pymatgen
data_La(Sb3Ru)4
_symmetry_space_group_name_H-M   'P 1'
_cell_length_a   9.27000000
_cell_length_b   9.27000000
_cell_length_c   9.27000000
_cell_angle_alpha   90.00000000
_cell_angle_beta   90.00000000
_cell_angle_gamma   90.00000000
_symmetry_Int_Tables_number   1
_chemical_formula_structural   La(Sb3Ru)4
_chemical_formula_sum   'La2 Sb24 Ru8'
_cell_volume   796.59798300
_cell_formula_units_Z   2
loop_
 _symmetry_equiv_pos_site_id
 _symmetry_equiv_pos_as_xyz
  1  'x, y, z'
loop_
 _atom_type_symbol
 _atom_type_oxidation_number
  La3+  3.0
  Sb1.25-  -1.25
  Ru3+  3.0
loop_
 _atom_site_type_symbol
 _atom_site_label
 _atom_site_symmetry_multiplicity
 _atom_site_fract_x
 _atom_site_fract_y
 _atom_site_fract_z
 _atom_site_occupancy
  La3+  La0  1  0.00000000  0.00000000  0.00000000  1.0
  La3+  La1  1  0.50000000  0.50000000  0.50000000  1.0
  Sb1.25-  Sb2  1  0.85700000  0.00000000  0.35900000  1.0
  Sb1.25-  Sb3  1  0.14300000  0.00000000  0.64100000  1.0
  Sb1.25-  Sb4  1  0.14300000  0.00000000  0.35900000  1.0
  Sb1.25-  Sb5  1  0.85700000  0.00000000  0.64100000  1.0
  Sb1.25-  Sb6  1  0.35900000  0.85700000  0.00000000  1.0
  Sb1.25-  Sb7  1  0.64100000  0.14300000  0.00000000  1.0
  Sb1.25-  Sb8  1  0.35900000  0.14300000  0.00000000  1.0
  Sb1.25-  Sb9  1  0.64100000  0.85700000  0.00000000  1.0
  Sb1.25-  Sb10  1  0.00000000  0.35900000  0.85700000  1.0
  Sb1.25-  Sb11  1  0.00000000  0.64100000  0.14300000  1.0
  Sb1.25-  Sb12  1  0.00000000  0.35900000  0.14300000  1.0
  Sb1.25-  Sb13  1  0.00000000  0.64100000  0.85700000  1.0
  Sb1.25-  Sb14  1  0.35700000  0.50000000  0.85900000  1.0
  Sb1.25-  Sb15  1  0.64300000  0.50000000  0.14100000  1.0
  Sb1.25-  Sb16  1  0.64300000  0.50000000  0.85900000  1.0
  Sb1.25-  Sb17  1  0.35700000  0.50000000  0.14100000  1.0
  Sb1.25-  Sb18  1  0.85900000  0.35700000  0.50000000  1.0
  Sb1.25-  Sb19  1  0.14100000  0.64300000  0.50000000  1.0
  Sb1.25-  Sb20  1  0.85900000  0.64300000  0.50000000  1.0
  Sb1.25-  Sb21  1  0.14100000  0.35700000  0.50000000  1.0
  Sb1.25-  Sb22  1  0.50000000  0.85900000  0.35700000  1.0
  Sb1.25-  Sb23  1  0.50000000  0.14100000  0.64300000  1.0
  Sb1.25-  Sb24  1  0.50000000  0.85900000  0.64300000  1.0
  Sb1.25-  Sb25  1  0.50000000  0.14100000  0.35700000  1.0
  Ru3+  Ru26  1  0.75000000  0.25000000  0.25000000  1.0
  Ru3+  Ru27  1  0.25000000  0.25000000  0.75000000  1.0
  Ru3+  Ru28  1  0.25000000  0.75000000  0.25000000  1.0
  Ru3+  Ru29  1  0.75000000  0.75000000  0.75000000  1.0
  Ru3+  Ru30  1  0.25000000  0.75000000  0.75000000  1.0
  Ru3+  Ru31  1  0.75000000  0.75000000  0.25000000  1.0
  Ru3+  Ru32  1  0.75000000  0.25000000  0.75000000  1.0
  Ru3+  Ru33  1  0.25000000  0.25000000  0.25000000  1.0
