# generated using pymatgen
data_LaSb2
_symmetry_space_group_name_H-M   'P 1'
_cell_length_a   6.31900000
_cell_length_b   6.17300000
_cell_length_c   18.57000000
_cell_angle_alpha   90.00000000
_cell_angle_beta   90.00000000
_cell_angle_gamma   90.00000000
_symmetry_Int_Tables_number   1
_chemical_formula_structural   LaSb2
_chemical_formula_sum   'La8 Sb16'
_cell_volume   724.36346259
_cell_formula_units_Z   8
loop_
 _symmetry_equiv_pos_site_id
 _symmetry_equiv_pos_as_xyz
  1  'x, y, z'
loop_
 _atom_type_symbol
 _atom_type_oxidation_number
  La0+  0.0
  Sb0+  0.0
loop_
 _atom_site_type_symbol
 _atom_site_label
 _atom_site_symmetry_multiplicity
 _atom_site_fract_x
 _atom_site_fract_y
 _atom_site_fract_z
 _atom_site_occupancy
  La0+  La0  1  0.00000000  0.13500000  0.89000000  1.0
  La0+  La1  1  0.00000000  0.86500000  0.11000000  1.0
  La0+  La2  1  0.00000000  0.36500000  0.39000000  1.0
  La0+  La3  1  0.00000000  0.63500000  0.61000000  1.0
  La0+  La4  1  0.50000000  0.63500000  0.89000000  1.0
  La0+  La5  1  0.50000000  0.36500000  0.11000000  1.0
  La0+  La6  1  0.50000000  0.86500000  0.39000000  1.0
  La0+  La7  1  0.50000000  0.13500000  0.61000000  1.0
  Sb0+  Sb8  1  0.00000000  0.63100000  0.93600000  1.0
  Sb0+  Sb9  1  0.00000000  0.36900000  0.06400000  1.0
  Sb0+  Sb10  1  0.00000000  0.86900000  0.43600000  1.0
  Sb0+  Sb11  1  0.00000000  0.13100000  0.56400000  1.0
  Sb0+  Sb12  1  0.50000000  0.13100000  0.93600000  1.0
  Sb0+  Sb13  1  0.50000000  0.86900000  0.06400000  1.0
  Sb0+  Sb14  1  0.50000000  0.36900000  0.43600000  1.0
  Sb0+  Sb15  1  0.50000000  0.63100000  0.56400000  1.0
  Sb0+  Sb16  1  0.75000000  0.37800000  0.75000000  1.0
  Sb0+  Sb17  1  0.75000000  0.62200000  0.25000000  1.0
  Sb0+  Sb18  1  0.75000000  0.12200000  0.25000000  1.0
  Sb0+  Sb19  1  0.75000000  0.87800000  0.75000000  1.0
  Sb0+  Sb20  1  0.25000000  0.62200000  0.25000000  1.0
  Sb0+  Sb21  1  0.25000000  0.37800000  0.75000000  1.0
  Sb0+  Sb22  1  0.25000000  0.87800000  0.75000000  1.0
  Sb0+  Sb23  1  0.25000000  0.12200000  0.25000000  1.0
