# generated using pymatgen
data_LuRu2
_symmetry_space_group_name_H-M   'P 1'
_cell_length_a   5.21300000
_cell_length_b   5.21300000
_cell_length_c   8.73200000
_cell_angle_alpha   90.00000000
_cell_angle_beta   90.00000000
_cell_angle_gamma   120.00000000
_symmetry_Int_Tables_number   1
_chemical_formula_structural   LuRu2
_chemical_formula_sum   'Lu4 Ru8'
_cell_volume   205.50377714
_cell_formula_units_Z   4
loop_
 _symmetry_equiv_pos_site_id
 _symmetry_equiv_pos_as_xyz
  1  'x, y, z'
loop_
 _atom_type_symbol
 _atom_type_oxidation_number
  Lu0+  0.0
  Ru0+  0.0
loop_
 _atom_site_type_symbol
 _atom_site_label
 _atom_site_symmetry_multiplicity
 _atom_site_fract_x
 _atom_site_fract_y
 _atom_site_fract_z
 _atom_site_occupancy
  Lu0+  Lu0  1  0.33333333  0.66666667  0.43700000  1.0
  Lu0+  Lu1  1  0.66666667  0.33333333  0.56300000  1.0
  Lu0+  Lu2  1  0.66666667  0.33333333  0.93700000  1.0
  Lu0+  Lu3  1  0.33333333  0.66666667  0.06300000  1.0
  Ru0+  Ru4  1  0.00000000  0.00000000  0.50000000  1.0
  Ru0+  Ru5  1  0.00000000  0.00000000  0.00000000  1.0
  Ru0+  Ru6  1  0.83000000  0.17000000  0.25000000  1.0
  Ru0+  Ru7  1  0.83000000  0.66000000  0.25000000  1.0
  Ru0+  Ru8  1  0.34000000  0.17000000  0.25000000  1.0
  Ru0+  Ru9  1  0.17000000  0.83000000  0.75000000  1.0
  Ru0+  Ru10  1  0.17000000  0.34000000  0.75000000  1.0
  Ru0+  Ru11  1  0.66000000  0.83000000  0.75000000  1.0
