# generated using pymatgen
data_U6Mn
_symmetry_space_group_name_H-M   'P 1'
_cell_length_a   10.31200000
_cell_length_b   10.31200000
_cell_length_c   5.25500000
_cell_angle_alpha   90.00000000
_cell_angle_beta   90.00000000
_cell_angle_gamma   90.00000000
_symmetry_Int_Tables_number   1
_chemical_formula_structural   U6Mn
_chemical_formula_sum   'U24 Mn4'
_cell_volume   558.80274272
_cell_formula_units_Z   4
loop_
 _symmetry_equiv_pos_site_id
 _symmetry_equiv_pos_as_xyz
  1  'x, y, z'
loop_
 _atom_type_symbol
 _atom_type_oxidation_number
  U0+  0.0
  Mn0+  0.0
loop_
 _atom_site_type_symbol
 _atom_site_label
 _atom_site_symmetry_multiplicity
 _atom_site_fract_x
 _atom_site_fract_y
 _atom_site_fract_z
 _atom_site_occupancy
  U0+  U0  1  0.90700000  0.40700000  0.50000000  1.0
  U0+  U1  1  0.09300000  0.59300000  0.50000000  1.0
  U0+  U2  1  0.09300000  0.40700000  0.00000000  1.0
  U0+  U3  1  0.90700000  0.59300000  0.00000000  1.0
  U0+  U4  1  0.40700000  0.09300000  0.50000000  1.0
  U0+  U5  1  0.59300000  0.90700000  0.50000000  1.0
  U0+  U6  1  0.40700000  0.90700000  0.00000000  1.0
  U0+  U7  1  0.59300000  0.09300000  0.00000000  1.0
  U0+  U8  1  0.10200000  0.21400000  0.50000000  1.0
  U0+  U9  1  0.89800000  0.78600000  0.50000000  1.0
  U0+  U10  1  0.89800000  0.21400000  0.00000000  1.0
  U0+  U11  1  0.10200000  0.78600000  0.00000000  1.0
  U0+  U12  1  0.21400000  0.89800000  0.50000000  1.0
  U0+  U13  1  0.78600000  0.10200000  0.50000000  1.0
  U0+  U14  1  0.21400000  0.10200000  0.00000000  1.0
  U0+  U15  1  0.78600000  0.89800000  0.00000000  1.0
  U0+  U16  1  0.60200000  0.71400000  0.00000000  1.0
  U0+  U17  1  0.39800000  0.28600000  0.00000000  1.0
  U0+  U18  1  0.39800000  0.71400000  0.50000000  1.0
  U0+  U19  1  0.60200000  0.28600000  0.50000000  1.0
  U0+  U20  1  0.71400000  0.39800000  0.00000000  1.0
  U0+  U21  1  0.28600000  0.60200000  0.00000000  1.0
  U0+  U22  1  0.71400000  0.60200000  0.50000000  1.0
  U0+  U23  1  0.28600000  0.39800000  0.50000000  1.0
  Mn0+  Mn24  1  0.00000000  0.00000000  0.25000000  1.0
  Mn0+  Mn25  1  0.00000000  0.00000000  0.75000000  1.0
  Mn0+  Mn26  1  0.50000000  0.50000000  0.75000000  1.0
  Mn0+  Mn27  1  0.50000000  0.50000000  0.25000000  1.0
