# generated using pymatgen
data_SmNi
_symmetry_space_group_name_H-M   'P 1'
_cell_length_a   3.77200000
_cell_length_b   10.34100000
_cell_length_c   4.27000000
_cell_angle_alpha   90.00000000
_cell_angle_beta   90.00000000
_cell_angle_gamma   90.00000000
_symmetry_Int_Tables_number   1
_chemical_formula_structural   SmNi
_chemical_formula_sum   'Sm4 Ni4'
_cell_volume   166.55669604
_cell_formula_units_Z   4
loop_
 _symmetry_equiv_pos_site_id
 _symmetry_equiv_pos_as_xyz
  1  'x, y, z'
loop_
 _atom_type_symbol
 _atom_type_oxidation_number
  Sm0+  0.0
  Ni0+  0.0
loop_
 _atom_site_type_symbol
 _atom_site_label
 _atom_site_symmetry_multiplicity
 _atom_site_fract_x
 _atom_site_fract_y
 _atom_site_fract_z
 _atom_site_occupancy
  Sm0+  Sm0  1  0.00000000  0.13500000  0.25000000  1.0
  Sm0+  Sm1  1  0.00000000  0.86500000  0.75000000  1.0
  Sm0+  Sm2  1  0.50000000  0.63500000  0.25000000  1.0
  Sm0+  Sm3  1  0.50000000  0.36500000  0.75000000  1.0
  Ni0+  Ni4  1  0.00000000  0.42500000  0.25000000  1.0
  Ni0+  Ni5  1  0.00000000  0.57500000  0.75000000  1.0
  Ni0+  Ni6  1  0.50000000  0.92500000  0.25000000  1.0
  Ni0+  Ni7  1  0.50000000  0.07500000  0.75000000  1.0
