# generated using pymatgen
data_Th7Os3
_symmetry_space_group_name_H-M   'P 1'
_cell_length_a   10.03100000
_cell_length_b   10.03100000
_cell_length_c   6.29600000
_cell_angle_alpha   90.00000000
_cell_angle_beta   90.00000000
_cell_angle_gamma   120.00000000
_symmetry_Int_Tables_number   1
_chemical_formula_structural   Th7Os3
_chemical_formula_sum   'Th14 Os6'
_cell_volume   548.63538156
_cell_formula_units_Z   2
loop_
 _symmetry_equiv_pos_site_id
 _symmetry_equiv_pos_as_xyz
  1  'x, y, z'
loop_
 _atom_type_symbol
 _atom_type_oxidation_number
  Th0+  0.0
  Os0+  0.0
loop_
 _atom_site_type_symbol
 _atom_site_label
 _atom_site_symmetry_multiplicity
 _atom_site_fract_x
 _atom_site_fract_y
 _atom_site_fract_z
 _atom_site_occupancy
  Th0+  Th0  1  0.66666667  0.33333333  0.53900000  1.0
  Th0+  Th1  1  0.33333333  0.66666667  0.03900000  1.0
  Th0+  Th2  1  0.87500000  0.75000000  0.75000000  1.0
  Th0+  Th3  1  0.25000000  0.12500000  0.75000000  1.0
  Th0+  Th4  1  0.87500000  0.12500000  0.75000000  1.0
  Th0+  Th5  1  0.12500000  0.25000000  0.25000000  1.0
  Th0+  Th6  1  0.75000000  0.87500000  0.25000000  1.0
  Th0+  Th7  1  0.12500000  0.87500000  0.25000000  1.0
  Th0+  Th8  1  0.46100000  0.92200000  0.55100000  1.0
  Th0+  Th9  1  0.07800000  0.53900000  0.55100000  1.0
  Th0+  Th10  1  0.46100000  0.53900000  0.55100000  1.0
  Th0+  Th11  1  0.53900000  0.07800000  0.05100000  1.0
  Th0+  Th12  1  0.92200000  0.46100000  0.05100000  1.0
  Th0+  Th13  1  0.53900000  0.46100000  0.05100000  1.0
  Os0+  Os14  1  0.18800000  0.37600000  0.80000000  1.0
  Os0+  Os15  1  0.62400000  0.81200000  0.80000000  1.0
  Os0+  Os16  1  0.18800000  0.81200000  0.80000000  1.0
  Os0+  Os17  1  0.81200000  0.62400000  0.30000000  1.0
  Os0+  Os18  1  0.37600000  0.18800000  0.30000000  1.0
  Os0+  Os19  1  0.81200000  0.18800000  0.30000000  1.0
