# generated using pymatgen
data_YbSnPd2
_symmetry_space_group_name_H-M   'P 1'
_cell_length_a   6.55500000
_cell_length_b   6.55500000
_cell_length_c   6.55500000
_cell_angle_alpha   90.00000000
_cell_angle_beta   90.00000000
_cell_angle_gamma   90.00000000
_symmetry_Int_Tables_number   1
_chemical_formula_structural   YbSnPd2
_chemical_formula_sum   'Yb4 Sn4 Pd8'
_cell_volume   281.65540387
_cell_formula_units_Z   4
loop_
 _symmetry_equiv_pos_site_id
 _symmetry_equiv_pos_as_xyz
  1  'x, y, z'
loop_
 _atom_type_symbol
 _atom_type_oxidation_number
  Yb0+  0.0
  Sn0+  0.0
  Pd0+  0.0
loop_
 _atom_site_type_symbol
 _atom_site_label
 _atom_site_symmetry_multiplicity
 _atom_site_fract_x
 _atom_site_fract_y
 _atom_site_fract_z
 _atom_site_occupancy
  Yb0+  Yb0  1  0.50000000  0.50000000  0.50000000  1.0
  Yb0+  Yb1  1  0.50000000  0.00000000  0.00000000  1.0
  Yb0+  Yb2  1  0.00000000  0.50000000  0.00000000  1.0
  Yb0+  Yb3  1  0.00000000  0.00000000  0.50000000  1.0
  Sn0+  Sn4  1  0.00000000  0.00000000  0.00000000  1.0
  Sn0+  Sn5  1  0.00000000  0.50000000  0.50000000  1.0
  Sn0+  Sn6  1  0.50000000  0.00000000  0.50000000  1.0
  Sn0+  Sn7  1  0.50000000  0.50000000  0.00000000  1.0
  Pd0+  Pd8  1  0.25000000  0.25000000  0.75000000  1.0
  Pd0+  Pd9  1  0.25000000  0.75000000  0.25000000  1.0
  Pd0+  Pd10  1  0.75000000  0.25000000  0.25000000  1.0
  Pd0+  Pd11  1  0.75000000  0.75000000  0.75000000  1.0
  Pd0+  Pd12  1  0.75000000  0.75000000  0.25000000  1.0
  Pd0+  Pd13  1  0.75000000  0.25000000  0.75000000  1.0
  Pd0+  Pd14  1  0.25000000  0.75000000  0.75000000  1.0
  Pd0+  Pd15  1  0.25000000  0.25000000  0.25000000  1.0
