# generated using pymatgen
data_ThRe2
_symmetry_space_group_name_H-M   'P 1'
_cell_length_a   5.49000000
_cell_length_b   5.49000000
_cell_length_c   9.10200000
_cell_angle_alpha   90.00000000
_cell_angle_beta   90.00000000
_cell_angle_gamma   120.00000000
_symmetry_Int_Tables_number   1
_chemical_formula_structural   ThRe2
_chemical_formula_sum   'Th4 Re8'
_cell_volume   237.58124387
_cell_formula_units_Z   4
loop_
 _symmetry_equiv_pos_site_id
 _symmetry_equiv_pos_as_xyz
  1  'x, y, z'
loop_
 _atom_type_symbol
 _atom_type_oxidation_number
  Th0+  0.0
  Re0+  0.0
loop_
 _atom_site_type_symbol
 _atom_site_label
 _atom_site_symmetry_multiplicity
 _atom_site_fract_x
 _atom_site_fract_y
 _atom_site_fract_z
 _atom_site_occupancy
  Th0+  Th0  1  0.33333333  0.66666667  0.43700000  1.0
  Th0+  Th1  1  0.66666667  0.33333333  0.56300000  1.0
  Th0+  Th2  1  0.66666667  0.33333333  0.93700000  1.0
  Th0+  Th3  1  0.33333333  0.66666667  0.06300000  1.0
  Re0+  Re4  1  0.00000000  0.00000000  0.50000000  1.0
  Re0+  Re5  1  0.00000000  0.00000000  0.00000000  1.0
  Re0+  Re6  1  0.83000000  0.17000000  0.25000000  1.0
  Re0+  Re7  1  0.83000000  0.66000000  0.25000000  1.0
  Re0+  Re8  1  0.34000000  0.17000000  0.25000000  1.0
  Re0+  Re9  1  0.17000000  0.83000000  0.75000000  1.0
  Re0+  Re10  1  0.17000000  0.34000000  0.75000000  1.0
  Re0+  Re11  1  0.66000000  0.83000000  0.75000000  1.0
