# generated using pymatgen
data_ThRh
_symmetry_space_group_name_H-M   'P 1'
_cell_length_a   3.86600000
_cell_length_b   11.24000000
_cell_length_c   4.22000000
_cell_angle_alpha   90.00000000
_cell_angle_beta   90.00000000
_cell_angle_gamma   90.00000000
_symmetry_Int_Tables_number   1
_chemical_formula_structural   ThRh
_chemical_formula_sum   'Th4 Rh4'
_cell_volume   183.37520480
_cell_formula_units_Z   4
loop_
 _symmetry_equiv_pos_site_id
 _symmetry_equiv_pos_as_xyz
  1  'x, y, z'
loop_
 _atom_type_symbol
 _atom_type_oxidation_number
  Th0+  0.0
  Rh0+  0.0
loop_
 _atom_site_type_symbol
 _atom_site_label
 _atom_site_symmetry_multiplicity
 _atom_site_fract_x
 _atom_site_fract_y
 _atom_site_fract_z
 _atom_site_occupancy
  Th0+  Th0  1  0.00000000  0.14000000  0.25000000  1.0
  Th0+  Th1  1  0.00000000  0.86000000  0.75000000  1.0
  Th0+  Th2  1  0.50000000  0.64000000  0.25000000  1.0
  Th0+  Th3  1  0.50000000  0.36000000  0.75000000  1.0
  Rh0+  Rh4  1  0.00000000  0.41000000  0.25000000  1.0
  Rh0+  Rh5  1  0.00000000  0.59000000  0.75000000  1.0
  Rh0+  Rh6  1  0.50000000  0.91000000  0.25000000  1.0
  Rh0+  Rh7  1  0.50000000  0.09000000  0.75000000  1.0
