# generated using pymatgen
data_YbSb2
_symmetry_space_group_name_H-M   'P 1'
_cell_length_a   4.53600000
_cell_length_b   16.63000000
_cell_length_c   4.27100000
_cell_angle_alpha   90.00000000
_cell_angle_beta   90.00000000
_cell_angle_gamma   90.00000000
_symmetry_Int_Tables_number   1
_chemical_formula_structural   YbSb2
_chemical_formula_sum   'Yb4 Sb8'
_cell_volume   322.17724728
_cell_formula_units_Z   4
loop_
 _symmetry_equiv_pos_site_id
 _symmetry_equiv_pos_as_xyz
  1  'x, y, z'
loop_
 _atom_type_symbol
 _atom_type_oxidation_number
  Yb0+  0.0
  Sb0+  0.0
loop_
 _atom_site_type_symbol
 _atom_site_label
 _atom_site_symmetry_multiplicity
 _atom_site_fract_x
 _atom_site_fract_y
 _atom_site_fract_z
 _atom_site_occupancy
  Yb0+  Yb0  1  0.00000000  0.10400000  0.25000000  1.0
  Yb0+  Yb1  1  0.00000000  0.89600000  0.75000000  1.0
  Yb0+  Yb2  1  0.50000000  0.60400000  0.25000000  1.0
  Yb0+  Yb3  1  0.50000000  0.39600000  0.75000000  1.0
  Sb0+  Sb4  1  0.00000000  0.43800000  0.25000000  1.0
  Sb0+  Sb5  1  0.00000000  0.56200000  0.75000000  1.0
  Sb0+  Sb6  1  0.50000000  0.93800000  0.25000000  1.0
  Sb0+  Sb7  1  0.50000000  0.06200000  0.75000000  1.0
  Sb0+  Sb8  1  0.00000000  0.74500000  0.25000000  1.0
  Sb0+  Sb9  1  0.00000000  0.25500000  0.75000000  1.0
  Sb0+  Sb10  1  0.50000000  0.24500000  0.25000000  1.0
  Sb0+  Sb11  1  0.50000000  0.75500000  0.75000000  1.0
