# generated using pymatgen
data_Zr3Ir
_symmetry_space_group_name_H-M   'P 1'
_cell_length_a   10.78800000
_cell_length_b   10.78800000
_cell_length_c   5.66200000
_cell_angle_alpha   90.00000000
_cell_angle_beta   90.00000000
_cell_angle_gamma   90.00000000
_symmetry_Int_Tables_number   1
_chemical_formula_structural   Zr3Ir
_chemical_formula_sum   'Zr24 Ir8'
_cell_volume   658.94890493
_cell_formula_units_Z   8
loop_
 _symmetry_equiv_pos_site_id
 _symmetry_equiv_pos_as_xyz
  1  'x, y, z'
loop_
 _atom_type_symbol
 _atom_type_oxidation_number
  Zr0+  0.0
  Ir0+  0.0
loop_
 _atom_site_type_symbol
 _atom_site_label
 _atom_site_symmetry_multiplicity
 _atom_site_fract_x
 _atom_site_fract_y
 _atom_site_fract_z
 _atom_site_occupancy
  Zr0+  Zr0  1  0.00000000  0.64560000  0.50000000  1.0
  Zr0+  Zr1  1  0.00000000  0.35440000  0.50000000  1.0
  Zr0+  Zr2  1  0.35440000  0.00000000  0.50000000  1.0
  Zr0+  Zr3  1  0.64560000  0.00000000  0.50000000  1.0
  Zr0+  Zr4  1  0.50000000  0.14560000  0.00000000  1.0
  Zr0+  Zr5  1  0.50000000  0.85440000  0.00000000  1.0
  Zr0+  Zr6  1  0.85440000  0.50000000  0.00000000  1.0
  Zr0+  Zr7  1  0.14560000  0.50000000  0.00000000  1.0
  Zr0+  Zr8  1  0.90480000  0.90480000  0.26100000  1.0
  Zr0+  Zr9  1  0.09520000  0.09520000  0.26100000  1.0
  Zr0+  Zr10  1  0.09520000  0.90480000  0.73900000  1.0
  Zr0+  Zr11  1  0.90480000  0.09520000  0.73900000  1.0
  Zr0+  Zr12  1  0.40480000  0.40480000  0.76100000  1.0
  Zr0+  Zr13  1  0.59520000  0.59520000  0.76100000  1.0
  Zr0+  Zr14  1  0.59520000  0.40480000  0.23900000  1.0
  Zr0+  Zr15  1  0.40480000  0.59520000  0.23900000  1.0
  Zr0+  Zr16  1  0.70600000  0.70600000  0.25360000  1.0
  Zr0+  Zr17  1  0.29400000  0.29400000  0.25360000  1.0
  Zr0+  Zr18  1  0.29400000  0.70600000  0.74640000  1.0
  Zr0+  Zr19  1  0.70600000  0.29400000  0.74640000  1.0
  Zr0+  Zr20  1  0.20600000  0.20600000  0.75360000  1.0
  Zr0+  Zr21  1  0.79400000  0.79400000  0.75360000  1.0
  Zr0+  Zr22  1  0.79400000  0.20600000  0.24640000  1.0
  Zr0+  Zr23  1  0.20600000  0.79400000  0.24640000  1.0
  Ir0+  Ir24  1  0.00000000  0.70810000  0.00000000  1.0
  Ir0+  Ir25  1  0.00000000  0.29190000  0.00000000  1.0
  Ir0+  Ir26  1  0.29190000  0.00000000  0.00000000  1.0
  Ir0+  Ir27  1  0.70810000  0.00000000  0.00000000  1.0
  Ir0+  Ir28  1  0.50000000  0.20810000  0.50000000  1.0
  Ir0+  Ir29  1  0.50000000  0.79190000  0.50000000  1.0
  Ir0+  Ir30  1  0.79190000  0.50000000  0.50000000  1.0
  Ir0+  Ir31  1  0.20810000  0.50000000  0.50000000  1.0
