# generated using pymatgen
data_LaNiSb2
_symmetry_space_group_name_H-M   'P 1'
_cell_length_a   4.42690000
_cell_length_b   4.42690000
_cell_length_c   9.87600000
_cell_angle_alpha   90.00000000
_cell_angle_beta   90.00000000
_cell_angle_gamma   90.00000000
_symmetry_Int_Tables_number   1
_chemical_formula_structural   LaNiSb2
_chemical_formula_sum   'La2 Ni2 Sb4'
_cell_volume   193.54435309
_cell_formula_units_Z   2
loop_
 _symmetry_equiv_pos_site_id
 _symmetry_equiv_pos_as_xyz
  1  'x, y, z'
loop_
 _atom_type_symbol
 _atom_type_oxidation_number
  La0+  0.0
  Ni0+  0.0
  Sb0+  0.0
loop_
 _atom_site_type_symbol
 _atom_site_label
 _atom_site_symmetry_multiplicity
 _atom_site_fract_x
 _atom_site_fract_y
 _atom_site_fract_z
 _atom_site_occupancy
  La0+  La0  1  0.75000000  0.75000000  0.73600000  1.0
  La0+  La1  1  0.25000000  0.25000000  0.26400000  1.0
  Ni0+  Ni2  1  0.25000000  0.75000000  0.50000000  1.0
  Ni0+  Ni3  1  0.75000000  0.25000000  0.50000000  1.0
  Sb0+  Sb4  1  0.25000000  0.75000000  0.00000000  1.0
  Sb0+  Sb5  1  0.75000000  0.25000000  0.00000000  1.0
  Sb0+  Sb6  1  0.75000000  0.75000000  0.37500000  1.0
  Sb0+  Sb7  1  0.25000000  0.25000000  0.62500000  1.0
