# generated using pymatgen
data_LaSb2Pd
_symmetry_space_group_name_H-M   'P 1'
_cell_length_a   4.53090000
_cell_length_b   4.53090000
_cell_length_c   9.98900000
_cell_angle_alpha   90.00000000
_cell_angle_beta   90.00000000
_cell_angle_gamma   90.00000000
_symmetry_Int_Tables_number   1
_chemical_formula_structural   LaSb2Pd
_chemical_formula_sum   'La2 Sb4 Pd2'
_cell_volume   205.06472850
_cell_formula_units_Z   2
loop_
 _symmetry_equiv_pos_site_id
 _symmetry_equiv_pos_as_xyz
  1  'x, y, z'
loop_
 _atom_type_symbol
 _atom_type_oxidation_number
  La0+  0.0
  Sb0+  0.0
  Pd0+  0.0
loop_
 _atom_site_type_symbol
 _atom_site_label
 _atom_site_symmetry_multiplicity
 _atom_site_fract_x
 _atom_site_fract_y
 _atom_site_fract_z
 _atom_site_occupancy
  La0+  La0  1  0.75000000  0.75000000  0.73800000  1.0
  La0+  La1  1  0.25000000  0.25000000  0.26200000  1.0
  Sb0+  Sb2  1  0.25000000  0.75000000  0.00000000  1.0
  Sb0+  Sb3  1  0.75000000  0.25000000  0.00000000  1.0
  Sb0+  Sb4  1  0.75000000  0.75000000  0.34400000  1.0
  Sb0+  Sb5  1  0.25000000  0.25000000  0.65600000  1.0
  Pd0+  Pd6  1  0.25000000  0.75000000  0.50000000  1.0
  Pd0+  Pd7  1  0.75000000  0.25000000  0.50000000  1.0
