# generated using pymatgen
data_ThNi2B2C
_symmetry_space_group_name_H-M   'P 1'
_cell_length_a   3.69500000
_cell_length_b   3.69500000
_cell_length_c   10.19700000
_cell_angle_alpha   90.00000000
_cell_angle_beta   90.00000000
_cell_angle_gamma   90.00000000
_symmetry_Int_Tables_number   1
_chemical_formula_structural   ThNi2B2C
_chemical_formula_sum   'Th2 Ni4 B4 C2'
_cell_volume   139.21989592
_cell_formula_units_Z   2
loop_
 _symmetry_equiv_pos_site_id
 _symmetry_equiv_pos_as_xyz
  1  'x, y, z'
loop_
 _atom_type_symbol
 _atom_type_oxidation_number
  Th0+  0.0
  Ni0+  0.0
  B0+  0.0
  C0+  0.0
loop_
 _atom_site_type_symbol
 _atom_site_label
 _atom_site_symmetry_multiplicity
 _atom_site_fract_x
 _atom_site_fract_y
 _atom_site_fract_z
 _atom_site_occupancy
  Th0+  Th0  1  0.00000000  0.00000000  0.00000000  1.0
  Th0+  Th1  1  0.50000000  0.50000000  0.50000000  1.0
  Ni0+  Ni2  1  0.00000000  0.50000000  0.75000000  1.0
  Ni0+  Ni3  1  0.50000000  0.00000000  0.75000000  1.0
  Ni0+  Ni4  1  0.00000000  0.50000000  0.25000000  1.0
  Ni0+  Ni5  1  0.50000000  0.00000000  0.25000000  1.0
  B0+  B6  1  0.00000000  0.00000000  0.64800000  1.0
  B0+  B7  1  0.00000000  0.00000000  0.35200000  1.0
  B0+  B8  1  0.50000000  0.50000000  0.14800000  1.0
  B0+  B9  1  0.50000000  0.50000000  0.85200000  1.0
  C0+  C10  1  0.50000000  0.50000000  0.00000000  1.0
  C0+  C11  1  0.00000000  0.00000000  0.50000000  1.0
