# generated using pymatgen
data_ThB2Pt2C
_symmetry_space_group_name_H-M   'P 1'
_cell_length_a   3.82800000
_cell_length_b   3.82800000
_cell_length_c   10.85300000
_cell_angle_alpha   90.00000000
_cell_angle_beta   90.00000000
_cell_angle_gamma   90.00000000
_symmetry_Int_Tables_number   1
_chemical_formula_structural   ThB2Pt2C
_chemical_formula_sum   'Th2 B4 Pt4 C2'
_cell_volume   159.03534715
_cell_formula_units_Z   2
loop_
 _symmetry_equiv_pos_site_id
 _symmetry_equiv_pos_as_xyz
  1  'x, y, z'
loop_
 _atom_type_symbol
 _atom_type_oxidation_number
  Th0+  0.0
  B0+  0.0
  Pt0+  0.0
  C0+  0.0
loop_
 _atom_site_type_symbol
 _atom_site_label
 _atom_site_symmetry_multiplicity
 _atom_site_fract_x
 _atom_site_fract_y
 _atom_site_fract_z
 _atom_site_occupancy
  Th0+  Th0  1  0.00000000  0.00000000  0.00000000  1.0
  Th0+  Th1  1  0.50000000  0.50000000  0.50000000  1.0
  B0+  B2  1  0.00000000  0.00000000  0.64800000  1.0
  B0+  B3  1  0.00000000  0.00000000  0.35200000  1.0
  B0+  B4  1  0.50000000  0.50000000  0.14800000  1.0
  B0+  B5  1  0.50000000  0.50000000  0.85200000  1.0
  Pt0+  Pt6  1  0.00000000  0.50000000  0.75000000  1.0
  Pt0+  Pt7  1  0.50000000  0.00000000  0.75000000  1.0
  Pt0+  Pt8  1  0.00000000  0.50000000  0.25000000  1.0
  Pt0+  Pt9  1  0.50000000  0.00000000  0.25000000  1.0
  C0+  C10  1  0.50000000  0.50000000  0.00000000  1.0
  C0+  C11  1  0.00000000  0.00000000  0.50000000  1.0
