# generated using pymatgen
data_LaCu
_symmetry_space_group_name_H-M   'P 1'
_cell_length_a   7.50300000
_cell_length_b   4.56200000
_cell_length_c   5.66100000
_cell_angle_alpha   90.00000000
_cell_angle_beta   90.00000000
_cell_angle_gamma   90.00000000
_symmetry_Int_Tables_number   1
_chemical_formula_structural   LaCu
_chemical_formula_sum   'La4 Cu4'
_cell_volume   193.76859145
_cell_formula_units_Z   4
loop_
 _symmetry_equiv_pos_site_id
 _symmetry_equiv_pos_as_xyz
  1  'x, y, z'
loop_
 _atom_type_symbol
 _atom_type_oxidation_number
  La0+  0.0
  Cu0+  0.0
loop_
 _atom_site_type_symbol
 _atom_site_label
 _atom_site_symmetry_multiplicity
 _atom_site_fract_x
 _atom_site_fract_y
 _atom_site_fract_z
 _atom_site_occupancy
  La0+  La0  1  0.67700000  0.25000000  0.36600000  1.0
  La0+  La1  1  0.17700000  0.25000000  0.13400000  1.0
  La0+  La2  1  0.32300000  0.75000000  0.63400000  1.0
  La0+  La3  1  0.82300000  0.75000000  0.86600000  1.0
  Cu0+  Cu4  1  0.53500000  0.25000000  0.89200000  1.0
  Cu0+  Cu5  1  0.03500000  0.25000000  0.60800000  1.0
  Cu0+  Cu6  1  0.46500000  0.75000000  0.10800000  1.0
  Cu0+  Cu7  1  0.96500000  0.75000000  0.39200000  1.0
