# generated using pymatgen
data_CeSiPt3
_symmetry_space_group_name_H-M   'P 1'
_cell_length_a   3.98300000
_cell_length_b   3.98300000
_cell_length_c   5.47500000
_cell_angle_alpha   90.00000000
_cell_angle_beta   90.00000000
_cell_angle_gamma   90.00000000
_symmetry_Int_Tables_number   1
_chemical_formula_structural   CeSiPt3
_chemical_formula_sum   'Ce1 Si1 Pt3'
_cell_volume   86.85698228
_cell_formula_units_Z   1
loop_
 _symmetry_equiv_pos_site_id
 _symmetry_equiv_pos_as_xyz
  1  'x, y, z'
loop_
 _atom_type_symbol
 _atom_type_oxidation_number
  Ce0+  0.0
  Si0+  0.0
  Pt0+  0.0
loop_
 _atom_site_type_symbol
 _atom_site_label
 _atom_site_symmetry_multiplicity
 _atom_site_fract_x
 _atom_site_fract_y
 _atom_site_fract_z
 _atom_site_occupancy
  Ce0+  Ce0  1  0.50000000  0.50000000  0.72230000  1.0
  Si0+  Si1  1  0.00000000  0.00000000  0.00000000  1.0
  Pt0+  Pt2  1  0.50000000  0.00000000  0.58280000  1.0
  Pt0+  Pt3  1  0.00000000  0.50000000  0.58280000  1.0
  Pt0+  Pt4  1  0.50000000  0.50000000  0.23520000  1.0
