# generated using pymatgen
data_LuNiBC
_symmetry_space_group_name_H-M   'P 1'
_cell_length_a   3.49850000
_cell_length_b   3.49850000
_cell_length_c   7.75560000
_cell_angle_alpha   90.00000000
_cell_angle_beta   90.00000000
_cell_angle_gamma   90.00000000
_symmetry_Int_Tables_number   1
_chemical_formula_structural   LuNiBC
_chemical_formula_sum   'Lu2 Ni2 B2 C2'
_cell_volume   94.92468365
_cell_formula_units_Z   2
loop_
 _symmetry_equiv_pos_site_id
 _symmetry_equiv_pos_as_xyz
  1  'x, y, z'
loop_
 _atom_type_symbol
 _atom_type_oxidation_number
  Lu0+  0.0
  Ni0+  0.0
  B0+  0.0
  C0+  0.0
loop_
 _atom_site_type_symbol
 _atom_site_label
 _atom_site_symmetry_multiplicity
 _atom_site_fract_x
 _atom_site_fract_y
 _atom_site_fract_z
 _atom_site_occupancy
  Lu0+  Lu0  1  0.75000000  0.75000000  0.83798000  1.0
  Lu0+  Lu1  1  0.25000000  0.25000000  0.16202000  1.0
  Ni0+  Ni2  1  0.75000000  0.25000000  0.50000000  1.0
  Ni0+  Ni3  1  0.25000000  0.75000000  0.50000000  1.0
  B0+  B4  1  0.25000000  0.25000000  0.65110000  1.0
  B0+  B5  1  0.75000000  0.75000000  0.34890000  1.0
  C0+  C6  1  0.25000000  0.25000000  0.84770000  1.0
  C0+  C7  1  0.75000000  0.75000000  0.15230000  1.0
