# generated using pymatgen
data_LaNiBN
_symmetry_space_group_name_H-M   'P 1'
_cell_length_a   3.73000000
_cell_length_b   3.73000000
_cell_length_c   7.64000000
_cell_angle_alpha   90.00000000
_cell_angle_beta   90.00000000
_cell_angle_gamma   90.00000000
_symmetry_Int_Tables_number   1
_chemical_formula_structural   LaNiBN
_chemical_formula_sum   'La2 Ni2 B2 N2'
_cell_volume   106.29455600
_cell_formula_units_Z   2
loop_
 _symmetry_equiv_pos_site_id
 _symmetry_equiv_pos_as_xyz
  1  'x, y, z'
loop_
 _atom_type_symbol
 _atom_type_oxidation_number
  La3+  3.0
  Ni2+  2.0
  B2-  -2.0
  N3-  -3.0
loop_
 _atom_site_type_symbol
 _atom_site_label
 _atom_site_symmetry_multiplicity
 _atom_site_fract_x
 _atom_site_fract_y
 _atom_site_fract_z
 _atom_site_occupancy
  La3+  La0  1  0.75000000  0.75000000  0.83000000  1.0
  La3+  La1  1  0.25000000  0.25000000  0.17000000  1.0
  Ni2+  Ni2  1  0.75000000  0.25000000  0.50000000  1.0
  Ni2+  Ni3  1  0.25000000  0.75000000  0.50000000  1.0
  B2-  B4  1  0.25000000  0.25000000  0.56000000  1.0
  B2-  B5  1  0.75000000  0.75000000  0.44000000  1.0
  N3-  N6  1  0.25000000  0.25000000  0.82000000  1.0
  N3-  N7  1  0.75000000  0.75000000  0.18000000  1.0
