# generated using pymatgen
data_Mg2Zn11
_symmetry_space_group_name_H-M   'P 1'
_cell_length_a   8.55200000
_cell_length_b   8.55200000
_cell_length_c   8.55200000
_cell_angle_alpha   90.00000000
_cell_angle_beta   90.00000000
_cell_angle_gamma   90.00000000
_symmetry_Int_Tables_number   1
_chemical_formula_structural   Mg2Zn11
_chemical_formula_sum   'Mg6 Zn33'
_cell_volume   625.46509261
_cell_formula_units_Z   3
loop_
 _symmetry_equiv_pos_site_id
 _symmetry_equiv_pos_as_xyz
  1  'x, y, z'
loop_
 _atom_type_symbol
 _atom_type_oxidation_number
  Mg0+  0.0
  Zn0+  0.0
loop_
 _atom_site_type_symbol
 _atom_site_label
 _atom_site_symmetry_multiplicity
 _atom_site_fract_x
 _atom_site_fract_y
 _atom_site_fract_z
 _atom_site_occupancy
  Mg0+  Mg0  1  0.50000000  0.32000000  0.00000000  1.0
  Mg0+  Mg1  1  0.50000000  0.68000000  0.00000000  1.0
  Mg0+  Mg2  1  0.00000000  0.50000000  0.32000000  1.0
  Mg0+  Mg3  1  0.00000000  0.50000000  0.68000000  1.0
  Mg0+  Mg4  1  0.32000000  0.00000000  0.50000000  1.0
  Mg0+  Mg5  1  0.68000000  0.00000000  0.50000000  1.0
  Zn0+  Zn6  1  0.50000000  0.50000000  0.50000000  1.0
  Zn0+  Zn7  1  0.00000000  0.23500000  0.00000000  1.0
  Zn0+  Zn8  1  0.00000000  0.76500000  0.00000000  1.0
  Zn0+  Zn9  1  0.00000000  0.00000000  0.23500000  1.0
  Zn0+  Zn10  1  0.00000000  0.00000000  0.76500000  1.0
  Zn0+  Zn11  1  0.23500000  0.00000000  0.00000000  1.0
  Zn0+  Zn12  1  0.76500000  0.00000000  0.00000000  1.0
  Zn0+  Zn13  1  0.00000000  0.16000000  0.50000000  1.0
  Zn0+  Zn14  1  0.00000000  0.84000000  0.50000000  1.0
  Zn0+  Zn15  1  0.50000000  0.00000000  0.16000000  1.0
  Zn0+  Zn16  1  0.50000000  0.00000000  0.84000000  1.0
  Zn0+  Zn17  1  0.16000000  0.50000000  0.00000000  1.0
  Zn0+  Zn18  1  0.84000000  0.50000000  0.00000000  1.0
  Zn0+  Zn19  1  0.77800000  0.22200000  0.22200000  1.0
  Zn0+  Zn20  1  0.22200000  0.22200000  0.77800000  1.0
  Zn0+  Zn21  1  0.22200000  0.77800000  0.22200000  1.0
  Zn0+  Zn22  1  0.77800000  0.77800000  0.77800000  1.0
  Zn0+  Zn23  1  0.22200000  0.77800000  0.77800000  1.0
  Zn0+  Zn24  1  0.77800000  0.77800000  0.22200000  1.0
  Zn0+  Zn25  1  0.77800000  0.22200000  0.77800000  1.0
  Zn0+  Zn26  1  0.22200000  0.22200000  0.22200000  1.0
  Zn0+  Zn27  1  0.65700000  0.50000000  0.24300000  1.0
  Zn0+  Zn28  1  0.34300000  0.50000000  0.75700000  1.0
  Zn0+  Zn29  1  0.34300000  0.50000000  0.24300000  1.0
  Zn0+  Zn30  1  0.65700000  0.50000000  0.75700000  1.0
  Zn0+  Zn31  1  0.24300000  0.65700000  0.50000000  1.0
  Zn0+  Zn32  1  0.75700000  0.34300000  0.50000000  1.0
  Zn0+  Zn33  1  0.24300000  0.34300000  0.50000000  1.0
  Zn0+  Zn34  1  0.75700000  0.65700000  0.50000000  1.0
  Zn0+  Zn35  1  0.50000000  0.24300000  0.65700000  1.0
  Zn0+  Zn36  1  0.50000000  0.75700000  0.34300000  1.0
  Zn0+  Zn37  1  0.50000000  0.24300000  0.34300000  1.0
  Zn0+  Zn38  1  0.50000000  0.75700000  0.65700000  1.0
