# generated using pymatgen
data_CeIr3
_symmetry_space_group_name_H-M   'P 1'
_cell_length_a   5.29000000
_cell_length_b   5.29000000
_cell_length_c   26.22000000
_cell_angle_alpha   90.00000000
_cell_angle_beta   90.00000000
_cell_angle_gamma   120.00000000
_symmetry_Int_Tables_number   1
_chemical_formula_structural   CeIr3
_chemical_formula_sum   'Ce9 Ir27'
_cell_volume   635.44016618
_cell_formula_units_Z   9
loop_
 _symmetry_equiv_pos_site_id
 _symmetry_equiv_pos_as_xyz
  1  'x, y, z'
loop_
 _atom_type_symbol
 _atom_type_oxidation_number
  Ce0+  0.0
  Ir0+  0.0
loop_
 _atom_site_type_symbol
 _atom_site_label
 _atom_site_symmetry_multiplicity
 _atom_site_fract_x
 _atom_site_fract_y
 _atom_site_fract_z
 _atom_site_occupancy
  Ce0+  Ce0  1  0.00000000  0.00000000  0.00000000  1.0
  Ce0+  Ce1  1  0.66666667  0.33333333  0.33333333  1.0
  Ce0+  Ce2  1  0.33333333  0.66666667  0.66666667  1.0
  Ce0+  Ce3  1  0.00000000  0.00000000  0.86067000  1.0
  Ce0+  Ce4  1  0.00000000  0.00000000  0.13933000  1.0
  Ce0+  Ce5  1  0.66666667  0.33333333  0.19400333  1.0
  Ce0+  Ce6  1  0.66666667  0.33333333  0.47266333  1.0
  Ce0+  Ce7  1  0.33333333  0.66666667  0.52733667  1.0
  Ce0+  Ce8  1  0.33333333  0.66666667  0.80599667  1.0
  Ir0+  Ir9  1  0.00000000  0.00000000  0.50000000  1.0
  Ir0+  Ir10  1  0.66666667  0.33333333  0.83333333  1.0
  Ir0+  Ir11  1  0.33333333  0.66666667  0.16666667  1.0
  Ir0+  Ir12  1  0.00000000  0.00000000  0.66666667  1.0
  Ir0+  Ir13  1  0.00000000  0.00000000  0.33333333  1.0
  Ir0+  Ir14  1  0.66666667  0.33333333  0.00000000  1.0
  Ir0+  Ir15  1  0.66666667  0.33333333  0.66666667  1.0
  Ir0+  Ir16  1  0.33333333  0.66666667  0.33333333  1.0
  Ir0+  Ir17  1  0.33333333  0.66666667  0.00000000  1.0
  Ir0+  Ir18  1  0.00122000  0.50061000  0.91742000  1.0
  Ir0+  Ir19  1  0.49939000  0.99878000  0.91742000  1.0
  Ir0+  Ir20  1  0.49939000  0.50061000  0.91742000  1.0
  Ir0+  Ir21  1  0.99878000  0.49939000  0.08258000  1.0
  Ir0+  Ir22  1  0.50061000  0.00122000  0.08258000  1.0
  Ir0+  Ir23  1  0.50061000  0.49939000  0.08258000  1.0
  Ir0+  Ir24  1  0.66788667  0.83394333  0.25075333  1.0
  Ir0+  Ir25  1  0.16605667  0.33211333  0.25075333  1.0
  Ir0+  Ir26  1  0.16605667  0.83394333  0.25075333  1.0
  Ir0+  Ir27  1  0.66544667  0.83272333  0.41591333  1.0
  Ir0+  Ir28  1  0.16727667  0.33455333  0.41591333  1.0
  Ir0+  Ir29  1  0.16727667  0.83272333  0.41591333  1.0
  Ir0+  Ir30  1  0.33455333  0.16727667  0.58408667  1.0
  Ir0+  Ir31  1  0.83272333  0.66544667  0.58408667  1.0
  Ir0+  Ir32  1  0.83272333  0.16727667  0.58408667  1.0
  Ir0+  Ir33  1  0.33211333  0.16605667  0.74924667  1.0
  Ir0+  Ir34  1  0.83394333  0.66788667  0.74924667  1.0
  Ir0+  Ir35  1  0.83394333  0.16605667  0.74924667  1.0
