# generated using pymatgen
data_Ba2HoCu3O7
_symmetry_space_group_name_H-M   'P 1'
_cell_length_a   3.81930000
_cell_length_b   3.88480000
_cell_length_c   11.67860000
_cell_angle_alpha   90.00000000
_cell_angle_beta   90.00000000
_cell_angle_gamma   90.00000000
_symmetry_Int_Tables_number   1
_chemical_formula_structural   Ba2HoCu3O7
_chemical_formula_sum   'Ba2 Ho1 Cu3 O7'
_cell_volume   173.27791825
_cell_formula_units_Z   1
loop_
 _symmetry_equiv_pos_site_id
 _symmetry_equiv_pos_as_xyz
  1  'x, y, z'
loop_
 _atom_type_symbol
 _atom_type_oxidation_number
  Ba2+  2.0
  Ho3+  3.0
  Cu2.333+  2.333
  O2-  -2.0
loop_
 _atom_site_type_symbol
 _atom_site_label
 _atom_site_symmetry_multiplicity
 _atom_site_fract_x
 _atom_site_fract_y
 _atom_site_fract_z
 _atom_site_occupancy
  Ba2+  Ba0  1  0.50000000  0.50000000  0.18330000  1.0
  Ba2+  Ba1  1  0.50000000  0.50000000  0.81670000  1.0
  Ho3+  Ho2  1  0.50000000  0.50000000  0.50000000  1.0
  Cu2.333+  Cu3  1  0.00000000  0.00000000  0.00000000  1.0
  Cu2.333+  Cu4  1  0.00000000  0.00000000  0.35510000  1.0
  Cu2.333+  Cu5  1  0.00000000  0.00000000  0.64490000  1.0
  O2-  O6  1  0.00000000  0.00000000  0.16100000  1.0
  O2-  O7  1  0.00000000  0.00000000  0.83900000  1.0
  O2-  O8  1  0.00000000  0.50000000  0.37000000  1.0
  O2-  O9  1  0.00000000  0.50000000  0.63000000  1.0
  O2-  O10  1  0.50000000  0.00000000  0.37800000  1.0
  O2-  O11  1  0.50000000  0.00000000  0.62200000  1.0
  O2-  O12  1  0.00000000  0.50000000  0.00000000  1.0
