# generated using pymatgen
data_Ba2CaTlCu2O7
_symmetry_space_group_name_H-M   'P 1'
_cell_length_a   3.84700000
_cell_length_b   3.84700000
_cell_length_c   12.73000000
_cell_angle_alpha   90.00000000
_cell_angle_beta   90.00000000
_cell_angle_gamma   90.00000000
_symmetry_Int_Tables_number   1
_chemical_formula_structural   Ba2CaTlCu2O7
_chemical_formula_sum   'Ba2 Ca1 Tl1 Cu2 O7'
_cell_volume   188.39647657
_cell_formula_units_Z   1
loop_
 _symmetry_equiv_pos_site_id
 _symmetry_equiv_pos_as_xyz
  1  'x, y, z'
loop_
 _atom_type_symbol
 _atom_type_oxidation_number
  Ba2+  2.0
  Ca2+  2.0
  Tl3+  3.0
  Cu2+  2.0
  O1.85-  -1.85
loop_
 _atom_site_type_symbol
 _atom_site_label
 _atom_site_symmetry_multiplicity
 _atom_site_fract_x
 _atom_site_fract_y
 _atom_site_fract_z
 _atom_site_occupancy
  Ba2+  Ba0  1  0.00000000  0.00000000  0.71900000  1.0
  Ba2+  Ba1  1  0.00000000  0.00000000  0.28100000  1.0
  Ca2+  Ca2  1  0.00000000  0.00000000  0.00000000  1.0
  Tl3+  Tl3  1  0.50000000  0.50000000  0.50000000  1.0
  Cu2+  Cu4  1  0.50000000  0.50000000  0.87300000  1.0
  Cu2+  Cu5  1  0.50000000  0.50000000  0.12700000  1.0
  O1.85-  O6  1  0.50000000  0.00000000  0.87300000  1.0
  O1.85-  O7  1  0.00000000  0.50000000  0.87300000  1.0
  O1.85-  O8  1  0.50000000  0.00000000  0.12700000  1.0
  O1.85-  O9  1  0.00000000  0.50000000  0.12700000  1.0
  O1.85-  O10  1  0.50000000  0.50000000  0.71900000  1.0
  O1.85-  O11  1  0.50000000  0.50000000  0.28100000  1.0
  O1.85-  O12  1  0.00000000  0.00000000  0.50000000  1.0
