# generated using pymatgen
data_Ba2Dy(CuO2)4
_symmetry_space_group_name_H-M   'P 1'
_cell_length_a   3.84176000
_cell_length_b   3.87140000
_cell_length_c   27.16900000
_cell_angle_alpha   90.00000000
_cell_angle_beta   90.00000000
_cell_angle_gamma   90.00000000
_symmetry_Int_Tables_number   1
_chemical_formula_structural   Ba2Dy(CuO2)4
_chemical_formula_sum   'Ba4 Dy2 Cu8 O16'
_cell_volume   404.08425618
_cell_formula_units_Z   2
loop_
 _symmetry_equiv_pos_site_id
 _symmetry_equiv_pos_as_xyz
  1  'x, y, z'
loop_
 _atom_type_symbol
 _atom_type_oxidation_number
  Ba2+  2.0
  Dy3+  3.0
  Cu2.25+  2.25
  O2-  -2.0
loop_
 _atom_site_type_symbol
 _atom_site_label
 _atom_site_symmetry_multiplicity
 _atom_site_fract_x
 _atom_site_fract_y
 _atom_site_fract_z
 _atom_site_occupancy
  Ba2+  Ba0  1  0.50000000  0.50000000  0.13580000  1.0
  Ba2+  Ba1  1  0.50000000  0.50000000  0.86420000  1.0
  Ba2+  Ba2  1  0.50000000  0.00000000  0.63580000  1.0
  Ba2+  Ba3  1  0.50000000  0.00000000  0.36420000  1.0
  Dy3+  Dy4  1  0.50000000  0.50000000  0.00000000  1.0
  Dy3+  Dy5  1  0.50000000  0.00000000  0.50000000  1.0
  Cu2.25+  Cu6  1  0.00000000  0.00000000  0.21220000  1.0
  Cu2.25+  Cu7  1  0.00000000  0.00000000  0.78780000  1.0
  Cu2.25+  Cu8  1  0.00000000  0.50000000  0.71220000  1.0
  Cu2.25+  Cu9  1  0.00000000  0.50000000  0.28780000  1.0
  Cu2.25+  Cu10  1  0.00000000  0.00000000  0.06100000  1.0
  Cu2.25+  Cu11  1  0.00000000  0.00000000  0.93900000  1.0
  Cu2.25+  Cu12  1  0.00000000  0.50000000  0.56100000  1.0
  Cu2.25+  Cu13  1  0.00000000  0.50000000  0.43900000  1.0
  O2-  O14  1  0.00000000  0.00000000  0.14510000  1.0
  O2-  O15  1  0.00000000  0.00000000  0.85490000  1.0
  O2-  O16  1  0.00000000  0.50000000  0.64510000  1.0
  O2-  O17  1  0.00000000  0.50000000  0.35490000  1.0
  O2-  O18  1  0.50000000  0.00000000  0.05320000  1.0
  O2-  O19  1  0.50000000  0.00000000  0.94680000  1.0
  O2-  O20  1  0.50000000  0.50000000  0.55320000  1.0
  O2-  O21  1  0.50000000  0.50000000  0.44680000  1.0
  O2-  O22  1  0.00000000  0.50000000  0.05230000  1.0
  O2-  O23  1  0.00000000  0.50000000  0.94770000  1.0
  O2-  O24  1  0.00000000  0.00000000  0.55230000  1.0
  O2-  O25  1  0.00000000  0.00000000  0.44770000  1.0
  O2-  O26  1  0.00000000  0.50000000  0.22010000  1.0
  O2-  O27  1  0.00000000  0.50000000  0.77990000  1.0
  O2-  O28  1  0.00000000  0.00000000  0.72010000  1.0
  O2-  O29  1  0.00000000  0.00000000  0.27990000  1.0
