# generated using pymatgen
data_Sr2CaCu2(BiO4)2
_symmetry_space_group_name_H-M   'P 1'
_cell_length_a   3.82500000
_cell_length_b   3.82500000
_cell_length_c   30.82000000
_cell_angle_alpha   90.00000000
_cell_angle_beta   90.00000000
_cell_angle_gamma   90.00000000
_symmetry_Int_Tables_number   1
_chemical_formula_structural   Sr2CaCu2(BiO4)2
_chemical_formula_sum   'Sr4 Ca2 Cu4 Bi4 O16'
_cell_volume   450.91586250
_cell_formula_units_Z   2
loop_
 _symmetry_equiv_pos_site_id
 _symmetry_equiv_pos_as_xyz
  1  'x, y, z'
loop_
 _atom_type_symbol
 _atom_type_oxidation_number
  Sr2+  2.0
  Ca2+  2.0
  Cu2+  2.0
  Bi3+  3.0
  O2-  -2.0
loop_
 _atom_site_type_symbol
 _atom_site_label
 _atom_site_symmetry_multiplicity
 _atom_site_fract_x
 _atom_site_fract_y
 _atom_site_fract_z
 _atom_site_occupancy
  Sr2+  Sr0  1  0.00000000  0.00000000  0.90000000  1.0
  Sr2+  Sr1  1  0.00000000  0.00000000  0.10000000  1.0
  Sr2+  Sr2  1  0.50000000  0.50000000  0.40000000  1.0
  Sr2+  Sr3  1  0.50000000  0.50000000  0.60000000  1.0
  Ca2+  Ca4  1  0.00000000  0.00000000  0.00000000  1.0
  Ca2+  Ca5  1  0.50000000  0.50000000  0.50000000  1.0
  Cu2+  Cu6  1  0.00000000  0.00000000  0.55000000  1.0
  Cu2+  Cu7  1  0.00000000  0.00000000  0.45000000  1.0
  Cu2+  Cu8  1  0.50000000  0.50000000  0.05000000  1.0
  Cu2+  Cu9  1  0.50000000  0.50000000  0.95000000  1.0
  Bi3+  Bi10  1  0.00000000  0.00000000  0.70000000  1.0
  Bi3+  Bi11  1  0.00000000  0.00000000  0.30000000  1.0
  Bi3+  Bi12  1  0.50000000  0.50000000  0.20000000  1.0
  Bi3+  Bi13  1  0.50000000  0.50000000  0.80000000  1.0
  O2-  O14  1  0.50000000  0.00000000  0.55000000  1.0
  O2-  O15  1  0.00000000  0.50000000  0.55000000  1.0
  O2-  O16  1  0.50000000  0.00000000  0.45000000  1.0
  O2-  O17  1  0.00000000  0.50000000  0.45000000  1.0
  O2-  O18  1  0.00000000  0.50000000  0.05000000  1.0
  O2-  O19  1  0.50000000  0.00000000  0.05000000  1.0
  O2-  O20  1  0.00000000  0.50000000  0.95000000  1.0
  O2-  O21  1  0.50000000  0.00000000  0.95000000  1.0
  O2-  O22  1  0.00000000  0.00000000  0.80000000  1.0
  O2-  O23  1  0.00000000  0.00000000  0.20000000  1.0
  O2-  O24  1  0.50000000  0.50000000  0.30000000  1.0
  O2-  O25  1  0.50000000  0.50000000  0.70000000  1.0
  O2-  O26  1  0.00000000  0.00000000  0.61500000  1.0
  O2-  O27  1  0.00000000  0.00000000  0.38500000  1.0
  O2-  O28  1  0.50000000  0.50000000  0.11500000  1.0
  O2-  O29  1  0.50000000  0.50000000  0.88500000  1.0
