# generated using pymatgen
data_Ba2Ca2Tl2Cu3O10
_symmetry_space_group_name_H-M   'P 1'
_cell_length_a   3.84700000
_cell_length_b   3.84700000
_cell_length_c   35.82000000
_cell_angle_alpha   90.00000000
_cell_angle_beta   90.00000000
_cell_angle_gamma   90.00000000
_symmetry_Int_Tables_number   1
_chemical_formula_structural   Ba2Ca2Tl2Cu3O10
_chemical_formula_sum   'Ba4 Ca4 Tl4 Cu6 O20'
_cell_volume   530.11483038
_cell_formula_units_Z   2
loop_
 _symmetry_equiv_pos_site_id
 _symmetry_equiv_pos_as_xyz
  1  'x, y, z'
loop_
 _atom_type_symbol
 _atom_type_oxidation_number
  Ba2+  2.0
  Ca2+  2.0
  Tl3+  3.0
  Cu2+  2.0
  O2-  -2.0
loop_
 _atom_site_type_symbol
 _atom_site_label
 _atom_site_symmetry_multiplicity
 _atom_site_fract_x
 _atom_site_fract_y
 _atom_site_fract_z
 _atom_site_occupancy
  Ba2+  Ba0  1  0.00000000  0.00000000  0.85500000  1.0
  Ba2+  Ba1  1  0.00000000  0.00000000  0.14500000  1.0
  Ba2+  Ba2  1  0.50000000  0.50000000  0.35500000  1.0
  Ba2+  Ba3  1  0.50000000  0.50000000  0.64500000  1.0
  Ca2+  Ca4  1  0.50000000  0.50000000  0.95500000  1.0
  Ca2+  Ca5  1  0.50000000  0.50000000  0.04500000  1.0
  Ca2+  Ca6  1  0.00000000  0.00000000  0.45500000  1.0
  Ca2+  Ca7  1  0.00000000  0.00000000  0.54500000  1.0
  Tl3+  Tl8  1  0.00000000  0.00000000  0.72300000  1.0
  Tl3+  Tl9  1  0.00000000  0.00000000  0.27700000  1.0
  Tl3+  Tl10  1  0.50000000  0.50000000  0.22300000  1.0
  Tl3+  Tl11  1  0.50000000  0.50000000  0.77700000  1.0
  Cu2+  Cu12  1  0.50000000  0.50000000  0.00000000  1.0
  Cu2+  Cu13  1  0.00000000  0.00000000  0.50000000  1.0
  Cu2+  Cu14  1  0.00000000  0.00000000  0.59000000  1.0
  Cu2+  Cu15  1  0.00000000  0.00000000  0.41000000  1.0
  Cu2+  Cu16  1  0.50000000  0.50000000  0.09000000  1.0
  Cu2+  Cu17  1  0.50000000  0.50000000  0.91000000  1.0
  O2-  O18  1  0.50000000  0.00000000  0.00000000  1.0
  O2-  O19  1  0.00000000  0.50000000  0.00000000  1.0
  O2-  O20  1  0.00000000  0.50000000  0.50000000  1.0
  O2-  O21  1  0.50000000  0.00000000  0.50000000  1.0
  O2-  O22  1  0.50000000  0.00000000  0.91300000  1.0
  O2-  O23  1  0.00000000  0.50000000  0.91300000  1.0
  O2-  O24  1  0.50000000  0.00000000  0.08700000  1.0
  O2-  O25  1  0.00000000  0.50000000  0.08700000  1.0
  O2-  O26  1  0.00000000  0.50000000  0.41300000  1.0
  O2-  O27  1  0.50000000  0.00000000  0.41300000  1.0
  O2-  O28  1  0.00000000  0.50000000  0.58700000  1.0
  O2-  O29  1  0.50000000  0.00000000  0.58700000  1.0
  O2-  O30  1  0.00000000  0.00000000  0.65000000  1.0
  O2-  O31  1  0.00000000  0.00000000  0.35000000  1.0
  O2-  O32  1  0.50000000  0.50000000  0.15000000  1.0
  O2-  O33  1  0.50000000  0.50000000  0.85000000  1.0
  O2-  O34  1  0.00000000  0.00000000  0.78500000  1.0
  O2-  O35  1  0.00000000  0.00000000  0.21500000  1.0
  O2-  O36  1  0.50000000  0.50000000  0.28500000  1.0
  O2-  O37  1  0.50000000  0.50000000  0.71500000  1.0
