# generated using pymatgen
data_Ba2Tm(CuO2)4
_symmetry_space_group_name_H-M   'P 1'
_cell_length_a   3.82220000
_cell_length_b   3.85600000
_cell_length_c   27.11300000
_cell_angle_alpha   90.00000000
_cell_angle_beta   90.00000000
_cell_angle_gamma   90.00000000
_symmetry_Int_Tables_number   1
_chemical_formula_structural   Ba2Tm(CuO2)4
_chemical_formula_sum   'Ba4 Tm2 Cu8 O16'
_cell_volume   399.60232596
_cell_formula_units_Z   2
loop_
 _symmetry_equiv_pos_site_id
 _symmetry_equiv_pos_as_xyz
  1  'x, y, z'
loop_
 _atom_type_symbol
 _atom_type_oxidation_number
  Ba2+  2.0
  Tm3+  3.0
  Cu2.25+  2.25
  O2-  -2.0
loop_
 _atom_site_type_symbol
 _atom_site_label
 _atom_site_symmetry_multiplicity
 _atom_site_fract_x
 _atom_site_fract_y
 _atom_site_fract_z
 _atom_site_occupancy
  Ba2+  Ba0  1  0.50000000  0.50000000  0.13455000  1.0
  Ba2+  Ba1  1  0.50000000  0.50000000  0.86545000  1.0
  Ba2+  Ba2  1  0.50000000  0.00000000  0.63455000  1.0
  Ba2+  Ba3  1  0.50000000  0.00000000  0.36545000  1.0
  Tm3+  Tm4  1  0.50000000  0.50000000  0.00000000  1.0
  Tm3+  Tm5  1  0.50000000  0.00000000  0.50000000  1.0
  Cu2.25+  Cu6  1  0.00000000  0.00000000  0.21288000  1.0
  Cu2.25+  Cu7  1  0.00000000  0.00000000  0.78712000  1.0
  Cu2.25+  Cu8  1  0.00000000  0.50000000  0.71288000  1.0
  Cu2.25+  Cu9  1  0.00000000  0.50000000  0.28712000  1.0
  Cu2.25+  Cu10  1  0.00000000  0.00000000  0.06097000  1.0
  Cu2.25+  Cu11  1  0.00000000  0.00000000  0.93903000  1.0
  Cu2.25+  Cu12  1  0.00000000  0.50000000  0.56097000  1.0
  Cu2.25+  Cu13  1  0.00000000  0.50000000  0.43903000  1.0
  O2-  O14  1  0.00000000  0.00000000  0.14490000  1.0
  O2-  O15  1  0.00000000  0.00000000  0.85510000  1.0
  O2-  O16  1  0.00000000  0.50000000  0.64490000  1.0
  O2-  O17  1  0.00000000  0.50000000  0.35510000  1.0
  O2-  O18  1  0.50000000  0.00000000  0.05150000  1.0
  O2-  O19  1  0.50000000  0.00000000  0.94850000  1.0
  O2-  O20  1  0.50000000  0.50000000  0.55150000  1.0
  O2-  O21  1  0.50000000  0.50000000  0.44850000  1.0
  O2-  O22  1  0.00000000  0.50000000  0.05160000  1.0
  O2-  O23  1  0.00000000  0.50000000  0.94840000  1.0
  O2-  O24  1  0.00000000  0.00000000  0.55160000  1.0
  O2-  O25  1  0.00000000  0.00000000  0.44840000  1.0
  O2-  O26  1  0.00000000  0.50000000  0.21830000  1.0
  O2-  O27  1  0.00000000  0.50000000  0.78170000  1.0
  O2-  O28  1  0.00000000  0.00000000  0.71830000  1.0
  O2-  O29  1  0.00000000  0.00000000  0.28170000  1.0
