# generated using pymatgen
data_Ti5Re24
_symmetry_space_group_name_H-M   'P 1'
_cell_length_a   9.58700000
_cell_length_b   9.58700000
_cell_length_c   9.58700000
_cell_angle_alpha   90.00000000
_cell_angle_beta   90.00000000
_cell_angle_gamma   90.00000000
_symmetry_Int_Tables_number   1
_chemical_formula_structural   Ti5Re24
_chemical_formula_sum   'Ti10 Re48'
_cell_volume   881.14662500
_cell_formula_units_Z   2
loop_
 _symmetry_equiv_pos_site_id
 _symmetry_equiv_pos_as_xyz
  1  'x, y, z'
loop_
 _atom_type_symbol
 _atom_type_oxidation_number
  Ti0+  0.0
  Re0+  0.0
loop_
 _atom_site_type_symbol
 _atom_site_label
 _atom_site_symmetry_multiplicity
 _atom_site_fract_x
 _atom_site_fract_y
 _atom_site_fract_z
 _atom_site_occupancy
  Ti0+  Ti0  1  0.00000000  0.00000000  0.00000000  1.0
  Ti0+  Ti1  1  0.50000000  0.50000000  0.50000000  1.0
  Ti0+  Ti2  1  0.68300000  0.68300000  0.31700000  1.0
  Ti0+  Ti3  1  0.68300000  0.31700000  0.68300000  1.0
  Ti0+  Ti4  1  0.31700000  0.68300000  0.68300000  1.0
  Ti0+  Ti5  1  0.31700000  0.31700000  0.31700000  1.0
  Ti0+  Ti6  1  0.18300000  0.18300000  0.81700000  1.0
  Ti0+  Ti7  1  0.18300000  0.81700000  0.18300000  1.0
  Ti0+  Ti8  1  0.81700000  0.18300000  0.18300000  1.0
  Ti0+  Ti9  1  0.81700000  0.81700000  0.81700000  1.0
  Re0+  Re10  1  0.95800000  0.64400000  0.35600000  1.0
  Re0+  Re11  1  0.64400000  0.64400000  0.04200000  1.0
  Re0+  Re12  1  0.64400000  0.95800000  0.35600000  1.0
  Re0+  Re13  1  0.95800000  0.35600000  0.64400000  1.0
  Re0+  Re14  1  0.64400000  0.35600000  0.95800000  1.0
  Re0+  Re15  1  0.64400000  0.04200000  0.64400000  1.0
  Re0+  Re16  1  0.04200000  0.64400000  0.64400000  1.0
  Re0+  Re17  1  0.35600000  0.64400000  0.95800000  1.0
  Re0+  Re18  1  0.35600000  0.95800000  0.64400000  1.0
  Re0+  Re19  1  0.04200000  0.35600000  0.35600000  1.0
  Re0+  Re20  1  0.35600000  0.35600000  0.04200000  1.0
  Re0+  Re21  1  0.35600000  0.04200000  0.35600000  1.0
  Re0+  Re22  1  0.45800000  0.14400000  0.85600000  1.0
  Re0+  Re23  1  0.14400000  0.14400000  0.54200000  1.0
  Re0+  Re24  1  0.14400000  0.45800000  0.85600000  1.0
  Re0+  Re25  1  0.45800000  0.85600000  0.14400000  1.0
  Re0+  Re26  1  0.14400000  0.85600000  0.45800000  1.0
  Re0+  Re27  1  0.14400000  0.54200000  0.14400000  1.0
  Re0+  Re28  1  0.54200000  0.14400000  0.14400000  1.0
  Re0+  Re29  1  0.85600000  0.14400000  0.45800000  1.0
  Re0+  Re30  1  0.85600000  0.45800000  0.14400000  1.0
  Re0+  Re31  1  0.54200000  0.85600000  0.85600000  1.0
  Re0+  Re32  1  0.85600000  0.85600000  0.54200000  1.0
  Re0+  Re33  1  0.85600000  0.54200000  0.85600000  1.0
  Re0+  Re34  1  0.72200000  0.91100000  0.08900000  1.0
  Re0+  Re35  1  0.91100000  0.91100000  0.27800000  1.0
  Re0+  Re36  1  0.91100000  0.72200000  0.08900000  1.0
  Re0+  Re37  1  0.72200000  0.08900000  0.91100000  1.0
  Re0+  Re38  1  0.91100000  0.08900000  0.72200000  1.0
  Re0+  Re39  1  0.91100000  0.27800000  0.91100000  1.0
  Re0+  Re40  1  0.27800000  0.91100000  0.91100000  1.0
  Re0+  Re41  1  0.08900000  0.91100000  0.72200000  1.0
  Re0+  Re42  1  0.08900000  0.72200000  0.91100000  1.0
  Re0+  Re43  1  0.27800000  0.08900000  0.08900000  1.0
  Re0+  Re44  1  0.08900000  0.08900000  0.27800000  1.0
  Re0+  Re45  1  0.08900000  0.27800000  0.08900000  1.0
  Re0+  Re46  1  0.22200000  0.41100000  0.58900000  1.0
  Re0+  Re47  1  0.41100000  0.41100000  0.77800000  1.0
  Re0+  Re48  1  0.41100000  0.22200000  0.58900000  1.0
  Re0+  Re49  1  0.22200000  0.58900000  0.41100000  1.0
  Re0+  Re50  1  0.41100000  0.58900000  0.22200000  1.0
  Re0+  Re51  1  0.41100000  0.77800000  0.41100000  1.0
  Re0+  Re52  1  0.77800000  0.41100000  0.41100000  1.0
  Re0+  Re53  1  0.58900000  0.41100000  0.22200000  1.0
  Re0+  Re54  1  0.58900000  0.22200000  0.41100000  1.0
  Re0+  Re55  1  0.77800000  0.58900000  0.58900000  1.0
  Re0+  Re56  1  0.58900000  0.58900000  0.77800000  1.0
  Re0+  Re57  1  0.58900000  0.77800000  0.58900000  1.0
