data_3D\Atomistic
_audit_creation_date              2022-02-01
_audit_creation_method            'Materials Studio'
_symmetry_space_group_name_H-M    'C2/C'
_symmetry_Int_Tables_number       15
_symmetry_cell_setting            monoclinic
loop_
_symmetry_equiv_pos_as_xyz
  x,y,z
  -x,y,-z+1/2
  -x,-y,-z
  x,-y,z+1/2
  x+1/2,y+1/2,z
  -x+1/2,y+1/2,-z+1/2
  -x+1/2,-y+1/2,-z
  x+1/2,-y+1/2,z+1/2
_cell_length_a                    3.8630
_cell_length_b                    5.9140
_cell_length_c                    5.0900
_cell_angle_alpha                 90.0000
_cell_angle_beta                  131.1000
_cell_angle_gamma                 90.0000
loop_
_atom_site_label
_atom_site_type_symbol
_atom_site_fract_x
_atom_site_fract_y
_atom_site_fract_z
_atom_site_U_iso_or_equiv
_atom_site_adp_type
_atom_site_occupancy
H1     H     0.50200   0.23200   0.46900   0.00000  Uiso   1.00
H2     H     0.49700   0.19400   0.87700   0.00000  Uiso   1.00
H3     H     0.00000   0.48100   0.25000   0.00000  Uiso   1.00
H4     H     0.00000   0.63100   0.25000   0.00000  Uiso   1.00
K5     K     0.00000   0.99800   0.25000   0.00000  Uiso   1.00
loop_
_geom_bond_atom_site_label_1
_geom_bond_atom_site_label_2
_geom_bond_distance
_geom_bond_site_symmetry_2
_ccdc_geom_bond_type
H1     H2      0.813   2_656 S
H2     H1      0.813   2_656 S
