data_3D\Atomistic
_audit_creation_date              2022-02-01
_audit_creation_method            'Materials Studio'
_symmetry_space_group_name_H-M    'P4/NMM'
_symmetry_Int_Tables_number       129
_symmetry_cell_setting            tetragonal
loop_
_symmetry_equiv_pos_as_xyz
  x,y,z
  -x,-y,z
  -y+1/2,x+1/2,z
  y+1/2,-x+1/2,z
  -x+1/2,y+1/2,-z
  x+1/2,-y+1/2,-z
  y,x,-z
  -y,-x,-z
  -x+1/2,-y+1/2,-z
  x+1/2,y+1/2,-z
  y,-x,-z
  -y,x,-z
  x,-y,z
  -x,y,z
  -y+1/2,-x+1/2,z
  y+1/2,x+1/2,z
_cell_length_a                    1.9060
_cell_length_b                    1.9060
_cell_length_c                    3.2400
_cell_angle_alpha                 90.0000
_cell_angle_beta                  90.0000
_cell_angle_gamma                 90.0000
loop_
_atom_site_label
_atom_site_type_symbol
_atom_site_fract_x
_atom_site_fract_y
_atom_site_fract_z
_atom_site_U_iso_or_equiv
_atom_site_adp_type
_atom_site_occupancy
Be1    Be    0.50000   0.00000   0.70700   0.00000  Uiso   1.00
H2     H     0.50000   0.00000   0.32700   0.00000  Uiso   1.00
H3     H     0.00000   0.00000   0.00000   0.00000  Uiso   1.00
