data_3D\Atomistic
_audit_creation_date              2022-02-01
_audit_creation_method            'Materials Studio'
_symmetry_space_group_name_H-M    'CMCM'
_symmetry_Int_Tables_number       63
_symmetry_cell_setting            orthorhombic
loop_
_symmetry_equiv_pos_as_xyz
  x,y,z
  -x,-y,z+1/2
  -x,y,-z+1/2
  x,-y,-z
  -x,-y,-z
  x,y,-z+1/2
  x,-y,z+1/2
  -x,y,z
  x+1/2,y+1/2,z
  -x+1/2,-y+1/2,z+1/2
  -x+1/2,y+1/2,-z+1/2
  x+1/2,-y+1/2,-z
  -x+1/2,-y+1/2,-z
  x+1/2,y+1/2,-z+1/2
  x+1/2,-y+1/2,z+1/2
  -x+1/2,y+1/2,z
_cell_length_a                    4.1050
_cell_length_b                    4.1120
_cell_length_c                    3.6720
_cell_angle_alpha                 90.0000
_cell_angle_beta                  90.0000
_cell_angle_gamma                 90.0000
loop_
_atom_site_label
_atom_site_type_symbol
_atom_site_fract_x
_atom_site_fract_y
_atom_site_fract_z
_atom_site_U_iso_or_equiv
_atom_site_adp_type
_atom_site_occupancy
Zr     Zr    0.50000   0.75020   0.75000   0.00000  Uiso   1.00
H      H     0.50000   0.74880   0.25000   0.00000  Uiso   1.00
loop_
_geom_bond_atom_site_label_1
_geom_bond_atom_site_label_2
_geom_bond_distance
_geom_bond_site_symmetry_2
_ccdc_geom_bond_type
Zr     Zr      2.905   9_445 S
Zr     Zr      2.905   9_545 S
Zr     Zr      2.905   9     S
Zr     Zr      2.905   9_455 S
Zr     Zr      2.758   2_664 S
Zr     Zr      2.758   2_665 S
Zr     Zr      2.754   10_564 S
Zr     Zr      2.754   10_665 S
Zr     Zr      2.754   10_565 S
Zr     Zr      2.754   10_664 S
Zr     Zr      2.755   2_674 S
Zr     Zr      2.755   2_675 S
Zr     H       1.836   1_556 S
H      Zr      1.836   1_554 S
