data_3D\Atomistic
_audit_creation_date              2022-02-01
_audit_creation_method            'Materials Studio'
_symmetry_space_group_name_H-M    'PNMA'
_symmetry_Int_Tables_number       62
_symmetry_cell_setting            orthorhombic
loop_
_symmetry_equiv_pos_as_xyz
  x,y,z
  -x+1/2,-y,z+1/2
  -x,y+1/2,-z
  x+1/2,-y+1/2,-z+1/2
  -x,-y,-z
  x+1/2,y,-z+1/2
  x,-y+1/2,z
  -x+1/2,y+1/2,z+1/2
_cell_length_a                    4.8100
_cell_length_b                    2.9120
_cell_length_c                    5.2450
_cell_angle_alpha                 90.0000
_cell_angle_beta                  90.0000
_cell_angle_gamma                 90.0000
loop_
_atom_site_label
_atom_site_type_symbol
_atom_site_fract_x
_atom_site_fract_y
_atom_site_fract_z
_atom_site_U_iso_or_equiv
_atom_site_adp_type
_atom_site_occupancy
Nb1    Nb    0.23680   0.75000   0.09130   0.00000  Uiso   1.00
H2     H     0.11780   0.75000   0.42270   0.00000  Uiso   1.00
H3     H     0.61870   0.75000   0.71150   0.00000  Uiso   1.00
loop_
_geom_bond_atom_site_label_1
_geom_bond_atom_site_label_2
_geom_bond_distance
_geom_bond_site_symmetry_2
_ccdc_geom_bond_type
Nb1    Nb1     2.912   1_565 S
Nb1    Nb1     2.912   1_545 S
Nb1    Nb1     2.925   4_465 S
Nb1    Nb1     2.925   4_565 S
Nb1    Nb1     3.002   2_574 S
Nb1    Nb1     3.002   2_564 S
Nb1    Nb1     3.002   2_575 S
Nb1    Nb1     3.002   2_565 S
Nb1    Nb1     2.868   3     S
Nb1    Nb1     2.868   3_545 S
Nb1    H2      1.841   2_574 S
Nb1    H2      1.841   2_564 S
Nb1    H2      1.834   4_565 S
Nb1    H3      1.687   4_465 S
Nb1    H3      1.916   3_646 S
Nb1    H3      1.916   3_656 S
H2     Nb1     1.841   2_575 S
H2     Nb1     1.841   2_565 S
H2     Nb1     1.834   4_465 S
H3     Nb1     1.687   4_565 S
H3     Nb1     1.916   3_656 S
H3     Nb1     1.916   3_646 S
