data_3D\Atomistic
_audit_creation_date              2022-02-01
_audit_creation_method            'Materials Studio'
_symmetry_space_group_name_H-M    'P42/MMC'
_symmetry_Int_Tables_number       131
_symmetry_cell_setting            tetragonal
loop_
_symmetry_equiv_pos_as_xyz
  x,y,z
  -x,-y,z
  -y,x,z+1/2
  y,-x,z+1/2
  -x,y,-z
  x,-y,-z
  y,x,-z+1/2
  -y,-x,-z+1/2
  -x,-y,-z
  x,y,-z
  y,-x,-z+1/2
  -y,x,-z+1/2
  x,-y,z
  -x,y,z
  -y,-x,z+1/2
  y,x,z+1/2
_cell_length_a                    3.2070
_cell_length_b                    3.2070
_cell_length_c                    2.6430
_cell_angle_alpha                 90.0000
_cell_angle_beta                  90.0000
_cell_angle_gamma                 90.0000
loop_
_atom_site_label
_atom_site_type_symbol
_atom_site_fract_x
_atom_site_fract_y
_atom_site_fract_z
_atom_site_U_iso_or_equiv
_atom_site_adp_type
_atom_site_occupancy
H1     H     0.50000   0.70200   0.50000   0.00000  Uiso   1.00
H2     H     0.00000   0.00000   0.25000   0.00000  Uiso   1.00
Tc3    Tc    0.00000   0.50000   0.50000   0.00000  Uiso   1.00
loop_
_geom_bond_atom_site_label_1
_geom_bond_atom_site_label_2
_geom_bond_distance
_geom_bond_site_symmetry_2
_ccdc_geom_bond_type
H1     Tc3     1.729   .     S
H1     Tc3     1.729   1_655 S
H1     Tc3     1.631   3_664 S
H1     Tc3     1.631   3_665 S
H2     Tc3     1.734   .     S
H2     Tc3     1.734   1_545 S
H2     Tc3     1.734   3_654 S
H2     Tc3     1.734   3_554 S
Tc3    Tc3     2.643   1_554 S
Tc3    Tc3     2.643   1_556 S
Tc3    H1      1.729   2_565 S
Tc3    H1      1.729   1_455 S
Tc3    H1      1.729   2_665 S
Tc3    H1      1.631   3_655 S
Tc3    H1      1.631   4_465 S
Tc3    H1      1.631   4_464 S
Tc3    H1      1.631   3_654 S
Tc3    H2      1.734   1_565 S
Tc3    H2      1.734   3     S
Tc3    H2      1.734   3_565 S
Tc3    Tc3     2.625   3_655 S
Tc3    Tc3     2.625   3_565 S
Tc3    Tc3     2.625   3_554 S
Tc3    Tc3     2.625   3_664 S
Tc3    Tc3     2.625   3_564 S
Tc3    Tc3     2.625   3_654 S
Tc3    Tc3     2.625   3_665 S
Tc3    Tc3     2.625   3     S
