data_3D\Atomistic
_audit_creation_date              2022-02-01
_audit_creation_method            'Materials Studio'
_symmetry_space_group_name_H-M    'CMCM'
_symmetry_Int_Tables_number       63
_symmetry_cell_setting            orthorhombic
loop_
_symmetry_equiv_pos_as_xyz
  x,y,z
  -x,-y,z+1/2
  -x,y,-z+1/2
  x,-y,-z
  -x,-y,-z
  x,y,-z+1/2
  x,-y,z+1/2
  -x,y,z
  x+1/2,y+1/2,z
  -x+1/2,-y+1/2,z+1/2
  -x+1/2,y+1/2,-z+1/2
  x+1/2,-y+1/2,-z
  -x+1/2,-y+1/2,-z
  x+1/2,y+1/2,-z+1/2
  x+1/2,-y+1/2,z+1/2
  -x+1/2,y+1/2,z
_cell_length_a                    2.5040
_cell_length_b                    7.7800
_cell_length_c                    2.4830
_cell_angle_alpha                 90.0000
_cell_angle_beta                  90.0000
_cell_angle_gamma                 90.0000
loop_
_atom_site_label
_atom_site_type_symbol
_atom_site_fract_x
_atom_site_fract_y
_atom_site_fract_z
_atom_site_U_iso_or_equiv
_atom_site_adp_type
_atom_site_occupancy
Tc1    Tc    0.50000   0.86300   0.75000   0.00000  Uiso   1.00
H2     H     0.50000   0.64800   0.75000   0.00000  Uiso   1.00
H3     H     0.50000   0.50000   0.00000   0.00000  Uiso   1.00
loop_
_geom_bond_atom_site_label_1
_geom_bond_atom_site_label_2
_geom_bond_distance
_geom_bond_site_symmetry_2
_ccdc_geom_bond_type
Tc1    Tc1     2.504   1_455 S
Tc1    Tc1     2.504   1_655 S
Tc1    Tc1     2.483   1_554 S
Tc1    Tc1     2.483   1_556 S
Tc1    Tc1     2.467   2_674 S
Tc1    Tc1     2.467   2_675 S
Tc1    Tc1     2.490   10_664 S
Tc1    Tc1     2.490   10_565 S
Tc1    Tc1     2.490   10_665 S
Tc1    Tc1     2.490   10_564 S
Tc1    H2      1.765   10_564 S
Tc1    H2      1.765   10_665 S
Tc1    H2      1.765   10_565 S
Tc1    H2      1.765   10_664 S
Tc1    H3      1.758   10_565 S
Tc1    H3      1.758   9_556 S
Tc1    H3      1.758   9_456 S
Tc1    H3      1.758   10_665 S
H2     Tc1     1.765   10_565 S
H2     Tc1     1.765   10_664 S
H2     Tc1     1.765   10_564 S
H2     Tc1     1.765   10_665 S
H3     Tc1     1.758   10_564 S
H3     Tc1     1.758   9_444 S
H3     Tc1     1.758   9_544 S
H3     Tc1     1.758   10_664 S
