data_3D\Atomistic
_audit_creation_date              2022-02-01
_audit_creation_method            'Materials Studio'
_symmetry_space_group_name_H-M    'CMMM'
_symmetry_Int_Tables_number       65
_symmetry_cell_setting            orthorhombic
loop_
_symmetry_equiv_pos_as_xyz
  x,y,z
  -x,-y,z
  -x,y,-z
  x,-y,-z
  -x,-y,-z
  x,y,-z
  x,-y,z
  -x,y,z
  x+1/2,y+1/2,z
  -x+1/2,-y+1/2,z
  -x+1/2,y+1/2,-z
  x+1/2,-y+1/2,-z
  -x+1/2,-y+1/2,-z
  x+1/2,y+1/2,-z
  x+1/2,-y+1/2,z
  -x+1/2,y+1/2,z
_cell_length_a                    3.3800
_cell_length_b                    3.3800
_cell_length_c                    6.4900
_cell_angle_alpha                 90.0000
_cell_angle_beta                  90.0000
_cell_angle_gamma                 90.0000
loop_
_atom_site_label
_atom_site_type_symbol
_atom_site_fract_x
_atom_site_fract_y
_atom_site_fract_z
_atom_site_U_iso_or_equiv
_atom_site_adp_type
_atom_site_occupancy
Fe1    Fe    0.00000   0.00000   0.31700   0.00000  Uiso   1.00
H2     H     0.00000   0.00000  -0.08900   0.00000  Uiso   1.00
H3     H     0.25000   0.25000  -0.16900   0.00000  Uiso   1.00
H4     H     0.25000   0.25000   0.50000   0.00000  Uiso   1.00
H5     H     0.00000   0.50000   0.33400   0.00000  Uiso   1.00
H6     H    -0.39200   0.00000   0.00000   0.00000  Uiso   1.00
loop_
_geom_bond_atom_site_label_1
_geom_bond_atom_site_label_2
_geom_bond_distance
_geom_bond_site_symmetry_2
_ccdc_geom_bond_type
Fe1    Fe1     2.390   9     S
Fe1    Fe1     2.390   9_445 S
Fe1    Fe1     2.390   9_545 S
Fe1    Fe1     2.390   9_455 S
Fe1    Fe1     2.375   3_556 S
Fe1    H4      1.685   2     S
Fe1    H4      1.685   3_556 S
Fe1    H4      1.685   4_556 S
Fe1    H5      1.694   9_545 S
Fe1    H5      1.694   9_445 S
Fe1    H5      1.694   1_545 S
Fe1    H3      1.533   4     S
Fe1    H3      1.533   3     S
Fe1    H3      1.533   6     S
Fe1    H3      1.533   5     S
Fe1    H2      1.480   3     S
H2     Fe1     1.480   3     S
H3     Fe1     1.533   11    S
H3     Fe1     1.533   3     S
H4     Fe1     1.685   9     S
H4     Fe1     1.685   11_556 S
H4     Fe1     1.685   3_556 S
H5     Fe1     1.694   9_455 S
H5     Fe1     1.694   9     S
H5     Fe1     1.694   1_565 S
H6     H6      0.730   2_455 S
