data_3D\Atomistic
_audit_creation_date              2022-02-02
_audit_creation_method            'Materials Studio'
_symmetry_space_group_name_H-M    'P21/C'
_symmetry_Int_Tables_number       14
_symmetry_cell_setting            monoclinic
loop_
_symmetry_equiv_pos_as_xyz
  x,y,z
  -x,y+1/2,-z+1/2
  -x,-y,-z
  x,-y+1/2,z+1/2
_cell_length_a                    2.9140
_cell_length_b                    2.8660
_cell_length_c                    5.9320
_cell_angle_alpha                 90.0000
_cell_angle_beta                  120.1400
_cell_angle_gamma                 90.0000
loop_
_atom_site_label
_atom_site_type_symbol
_atom_site_fract_x
_atom_site_fract_y
_atom_site_fract_z
_atom_site_U_iso_or_equiv
_atom_site_adp_type
_atom_site_occupancy
H1     H     0.97100   0.12500   0.84700   0.00000  Uiso   1.00
H2     H     0.25000   0.97800   0.69900   0.00000  Uiso   1.00
H3     H     0.95600   0.65800   0.37800   0.00000  Uiso   1.00
H4     H     0.51700   0.49100   0.35800   0.00000  Uiso   1.00
Ge5    Ge    0.50000   0.00000   0.50000   0.00000  Uiso   1.00
loop_
_geom_bond_atom_site_label_1
_geom_bond_atom_site_label_2
_geom_bond_distance
_geom_bond_site_symmetry_2
_ccdc_geom_bond_type
H1     Ge5     1.718   2_756 S
H1     H3      0.838   4     S
H2     Ge5     1.671   1_565 S
H3     Ge5     1.687   1_665 S
H3     H1      0.838   4_554 S
H4     Ge5     1.698   1_565 S
Ge5    H1      1.718   2_746 S
Ge5    H1      1.718   4_454 S
Ge5    H2      1.671   1_545 S
Ge5    H2      1.671   3_666 S
Ge5    H3      1.687   1_445 S
Ge5    H3      1.687   3_766 S
Ge5    H4      1.698   1_545 S
Ge5    H4      1.698   3_666 S
Ge5    H4      1.654   3_656 S
