data_3D\Atomistic
_audit_creation_date              2022-02-02
_audit_creation_method            'Materials Studio'
_symmetry_space_group_name_H-M    'I-4M2'
_symmetry_Int_Tables_number       119
_symmetry_cell_setting            tetragonal
loop_
_symmetry_equiv_pos_as_xyz
  x,y,z
  -x,-y,z
  y,-x,-z
  -y,x,-z
  x,-y,z
  -x,y,z
  y,x,-z
  -y,-x,-z
  x+1/2,y+1/2,z+1/2
  -x+1/2,-y+1/2,z+1/2
  y+1/2,-x+1/2,-z+1/2
  -y+1/2,x+1/2,-z+1/2
  x+1/2,-y+1/2,z+1/2
  -x+1/2,y+1/2,z+1/2
  y+1/2,x+1/2,-z+1/2
  -y+1/2,-x+1/2,-z+1/2
_cell_length_a                    2.9990
_cell_length_b                    2.9990
_cell_length_c                    5.3890
_cell_angle_alpha                 90.0000
_cell_angle_beta                  90.0000
_cell_angle_gamma                 90.0000
loop_
_atom_site_label
_atom_site_type_symbol
_atom_site_fract_x
_atom_site_fract_y
_atom_site_fract_z
_atom_site_U_iso_or_equiv
_atom_site_adp_type
_atom_site_occupancy
Sn1    Sn    0.00000   0.00000   0.50000   0.00000  Uiso   1.00
H2     H     0.00000   0.00000   0.11800   0.00000  Uiso   1.00
H3     H     0.72700   0.00000   0.16900   0.00000  Uiso   1.00
H4     H     0.00000   0.50000   0.16900   0.00000  Uiso   1.00
loop_
_geom_bond_atom_site_label_1
_geom_bond_atom_site_label_2
_geom_bond_distance
_geom_bond_site_symmetry_2
_ccdc_geom_bond_type
Sn1    Sn1     2.999   1_655 S
Sn1    Sn1     2.999   1_455 S
Sn1    Sn1     2.999   1_545 S
Sn1    Sn1     2.999   1_565 S
Sn1    H3      1.882   9_445 S
Sn1    H3      1.882   10    S
Sn1    H3      1.882   11_455 S
Sn1    H3      1.882   12_545 S
Sn1    H3      1.882   9_455 S
Sn1    H3      1.882   10_545 S
Sn1    H3      1.882   12_445 S
Sn1    H3      1.882   11    S
Sn1    H3      1.963   1_455 S
Sn1    H3      1.963   2_655 S
Sn1    H3      1.963   3_566 S
Sn1    H3      1.963   4_546 S
Sn1    H4      1.754   9_545 S
Sn1    H4      1.754   9_445 S
Sn1    H4      1.754   11_445 S
Sn1    H4      1.754   11_455 S
H3     Sn1     1.882   9_554 S
H3     Sn1     1.882   9_544 S
H3     Sn1     1.963   1_655 S
H4     Sn1     1.754   9_454 S
H4     Sn1     1.754   9_554 S
