data_3D\Atomistic
_audit_creation_date              2022-02-02
_audit_creation_method            'Materials Studio'
_symmetry_space_group_name_H-M    'C2/M'
_symmetry_Int_Tables_number       12
_symmetry_cell_setting            monoclinic
loop_
_symmetry_equiv_pos_as_xyz
  x,y,z
  -x,y,-z
  -x,-y,-z
  x,-y,z
  x+1/2,y+1/2,z
  -x+1/2,y+1/2,-z
  -x+1/2,-y+1/2,-z
  x+1/2,-y+1/2,z
_cell_length_a                    5.1910
_cell_length_b                    3.0650
_cell_length_c                    7.3880
_cell_angle_alpha                 90.0000
_cell_angle_beta                  148.9500
_cell_angle_gamma                 90.0000
loop_
_atom_site_label
_atom_site_type_symbol
_atom_site_fract_x
_atom_site_fract_y
_atom_site_fract_z
_atom_site_U_iso_or_equiv
_atom_site_adp_type
_atom_site_occupancy
H1     H     0.38100   0.23990   0.11230   0.00000  Uiso   1.00
Sn2    Sn    0.00000   0.50000   0.50000   0.00000  Uiso   1.00
H3     H     0.04950  -0.00000   0.65530   0.00000  Uiso   1.00
H4     H     0.45640  -0.00000   0.72260   0.00000  Uiso   1.00
H5     H     0.34280  -0.00000   0.88320   0.00000  Uiso   1.00
H6     H     0.00000   0.12330   0.00000   0.00000  Uiso   1.00
loop_
_geom_bond_atom_site_label_1
_geom_bond_atom_site_label_2
_geom_bond_distance
_geom_bond_site_symmetry_2
_ccdc_geom_bond_type
H1     Sn2     1.842   1_655 S
Sn2    Sn2     3.065   1_565 S
Sn2    Sn2     3.065   1_545 S
Sn2    Sn2     3.014   5_455 S
Sn2    Sn2     3.014   5     S
Sn2    Sn2     3.014   5_545 S
Sn2    Sn2     3.014   5_445 S
Sn2    H3      1.961   5     S
Sn2    H3      1.961   6_456 S
Sn2    H3      1.796   2_556 S
Sn2    H3      1.796   2_566 S
Sn2    H3      1.796   1_565 S
Sn2    H4      1.998   .     S
Sn2    H4      1.998   2_556 S
Sn2    H4      1.998   2_566 S
Sn2    H4      1.998   1_565 S
Sn2    H4      1.842   5_455 S
Sn2    H4      1.842   6_556 S
Sn2    H1      1.842   1_455 S
Sn2    H1      1.842   2_656 S
Sn2    H1      1.842   3_666 S
Sn2    H1      1.842   4_465 S
Sn2    H6      2.024   5_556 S
Sn2    H6      2.024   5_455 S
Sn2    H6      2.024   7_455 S
Sn2    H6      2.024   7_556 S
H3     Sn2     1.961   5_445 S
H3     Sn2     1.796   1_545 S
H4     Sn2     1.998   1_545 S
H4     Sn2     1.842   5_545 S
H6     Sn2     2.024   5_444 S
H6     Sn2     2.024   5_545 S
H6     H6      0.756   3     S
