data_3D\Atomistic
_audit_creation_date              2022-02-02
_audit_creation_method            'Materials Studio'
_symmetry_space_group_name_H-M    'C2/M'
_symmetry_Int_Tables_number       12
_symmetry_cell_setting            monoclinic
loop_
_symmetry_equiv_pos_as_xyz
  x,y,z
  -x,y,-z
  -x,-y,-z
  x,-y,z
  x+1/2,y+1/2,z
  -x+1/2,y+1/2,-z
  -x+1/2,-y+1/2,-z
  x+1/2,-y+1/2,z
_cell_length_a                    7.1290
_cell_length_b                    2.7300
_cell_length_c                    3.6730
_cell_angle_alpha                 90.0000
_cell_angle_beta                  60.7100
_cell_angle_gamma                 90.0000
loop_
_atom_site_label
_atom_site_type_symbol
_atom_site_fract_x
_atom_site_fract_y
_atom_site_fract_z
_atom_site_U_iso_or_equiv
_atom_site_adp_type
_atom_site_occupancy
H1     H     0.23650   0.28080   0.40350   0.00000  Uiso   1.00
Sn2    Sn    0.00000   0.50000   0.00000   0.00000  Uiso   1.00
H3     H     0.36510   0.00000   0.70310   0.00000  Uiso   1.00
H4     H     0.18570   0.00000   0.98520   0.00000  Uiso   1.00
H5     H     0.07320   0.00000   0.62520   0.00000  Uiso   1.00
H6     H     0.80630   0.00000   0.80900   0.00000  Uiso   1.00
H7     H     0.00000   0.50000   0.50000   0.00000  Uiso   1.00
H8     H     0.00000   0.00000   0.50000   0.00000  Uiso   1.00
loop_
_geom_bond_atom_site_label_1
_geom_bond_atom_site_label_2
_geom_bond_distance
_geom_bond_site_symmetry_2
_ccdc_geom_bond_type
H1     H1      0.837   7_556 S
H1     Sn2     1.894   5_545 S
Sn2    Sn2     2.730   1_565 S
Sn2    Sn2     2.730   1_545 S
Sn2    H3      1.772   5_454 S
Sn2    H3      1.772   6_556 S
Sn2    H4      1.884   1_554 S
Sn2    H4      1.884   2_556 S
Sn2    H4      1.884   2_566 S
Sn2    H4      1.884   1_564 S
Sn2    H5      1.824   1_564 S
Sn2    H5      1.824   2_566 S
Sn2    H5      1.824   2_556 S
Sn2    H5      1.824   1_554 S
Sn2    H6      1.939   5_454 S
Sn2    H6      1.939   6_556 S
Sn2    H1      1.894   5_455 S
Sn2    H1      1.894   6     S
Sn2    H1      1.894   7     S
Sn2    H1      1.894   8_455 S
Sn2    H7      1.837   .     S
Sn2    H7      1.837   1_554 S
H3     Sn2     1.772   5_546 S
H4     Sn2     1.884   1_556 S
H4     Sn2     1.884   1_546 S
H4     H6      0.785   2_657 S
H5     Sn2     1.824   1_546 S
H5     Sn2     1.824   1_556 S
H5     H8      0.848   .     S
H6     Sn2     1.939   5_546 S
H6     H4      0.785   2_657 S
H7     Sn2     1.837   1_556 S
H8     H5      0.848   2_556 S
