data_3D\Atomistic
_audit_creation_date              2022-02-02
_audit_creation_method            'Materials Studio'
_symmetry_space_group_name_H-M    'PMMN'
_symmetry_Int_Tables_number       59
_symmetry_cell_setting            orthorhombic
loop_
_symmetry_equiv_pos_as_xyz
  x,y,z
  -x,-y,z
  -x+1/2,y+1/2,-z
  x+1/2,-y+1/2,-z
  -x+1/2,-y+1/2,-z
  x+1/2,y+1/2,-z
  x,-y,z
  -x,y,z
_cell_length_a                    3.0607
_cell_length_b                    5.2513
_cell_length_c                    2.9380
_cell_angle_alpha                 90.0000
_cell_angle_beta                  90.0000
_cell_angle_gamma                 90.0000
loop_
_atom_site_label
_atom_site_type_symbol
_atom_site_fract_x
_atom_site_fract_y
_atom_site_fract_z
_atom_site_U_iso_or_equiv
_atom_site_adp_type
_atom_site_occupancy
H1     H     0.00000   0.14251   0.13921   0.00000  Uiso   1.00
H2     H     0.50000   0.30853   0.13066   0.00000  Uiso   1.00
Bi3    Bi    0.00000   0.50000   0.45569   0.00000  Uiso   1.00
loop_
_geom_bond_atom_site_label_1
_geom_bond_atom_site_label_2
_geom_bond_distance
_geom_bond_site_symmetry_2
_ccdc_geom_bond_type
H1     H2      0.834   4_455 S
H1     Bi3     2.095   .     S
H1     Bi3     2.078   3_446 S
H1     Bi3     2.078   3_546 S
H2     H1      0.834   4     S
H2     Bi3     2.065   .     S
H2     Bi3     2.065   1_655 S
H2     Bi3     2.025   3_546 S
Bi3    Bi3     3.061   1_655 S
Bi3    Bi3     3.061   1_455 S
Bi3    Bi3     2.938   1_554 S
Bi3    Bi3     2.938   1_556 S
Bi3    H1      2.095   2_565 S
Bi3    H1      2.078   4_556 S
Bi3    H1      2.078   3_456 S
Bi3    H1      2.078   3_556 S
Bi3    H1      2.078   4_456 S
Bi3    H2      2.065   2_565 S
Bi3    H2      2.065   2_665 S
Bi3    H2      2.065   1_455 S
Bi3    H2      2.025   4_456 S
Bi3    H2      2.025   3_556 S
Bi3    Bi3     3.050   3_546 S
Bi3    Bi3     3.050   3_456 S
Bi3    Bi3     3.050   3_556 S
Bi3    Bi3     3.050   3_446 S
