data_3D\Atomistic
_audit_creation_date              2022-02-02
_audit_creation_method            'Materials Studio'
_symmetry_space_group_name_H-M    'C2/M'
_symmetry_Int_Tables_number       12
_symmetry_cell_setting            monoclinic
loop_
_symmetry_equiv_pos_as_xyz
  x,y,z
  -x,y,-z
  -x,-y,-z
  x,-y,z
  x+1/2,y+1/2,z
  -x+1/2,y+1/2,-z
  -x+1/2,-y+1/2,-z
  x+1/2,-y+1/2,z
_cell_length_a                    7.5800
_cell_length_b                    3.2220
_cell_length_c                    3.8580
_cell_angle_alpha                 90.0000
_cell_angle_beta                  120.3200
_cell_angle_gamma                 90.0000
loop_
_atom_site_label
_atom_site_type_symbol
_atom_site_fract_x
_atom_site_fract_y
_atom_site_fract_z
_atom_site_U_iso_or_equiv
_atom_site_adp_type
_atom_site_occupancy
H1     H     0.37600   0.00000   0.28800   0.00000  Uiso   1.00
Se2    Se    0.10500   0.00000   0.84200   0.00000  Uiso   1.00
Se3    Se    0.35500   0.00000   0.67200   0.00000  Uiso   1.00
loop_
_geom_bond_atom_site_label_1
_geom_bond_atom_site_label_2
_geom_bond_distance
_geom_bond_site_symmetry_2
_ccdc_geom_bond_type
H1     Se2     1.715   6_546 S
H1     Se2     1.715   6_556 S
H1     Se3     1.568   .     S
Se2    Se2     2.492   6_557 S
Se2    Se2     2.492   6_547 S
Se2    Se2     2.445   2_557 S
Se2    H1      1.715   6_556 S
Se2    H1      1.715   6_546 S
Se2    Se2     2.293   2_556 S
Se2    Se3     2.316   5_445 S
Se2    Se3     2.316   5_455 S
Se2    Se3     2.688   6_546 S
Se2    Se3     2.688   6_556 S
Se2    Se3     2.373   6_547 S
Se2    Se3     2.373   6_557 S
Se3    Se3     2.181   6_556 S
Se3    Se3     2.181   6_546 S
Se3    Se2     2.316   5     S
Se3    Se2     2.316   5_545 S
Se3    Se3     2.371   2_657 S
Se3    Se2     2.688   6_556 S
Se3    Se2     2.688   6_546 S
Se3    Se2     2.373   6_557 S
Se3    Se2     2.373   6_547 S
