# generated using pymatgen
data_YPd2Pb
_symmetry_space_group_name_H-M   'P 1'
_cell_length_a   6.77800000
_cell_length_b   6.77800000
_cell_length_c   6.77800000
_cell_angle_alpha   90.00000000
_cell_angle_beta   90.00000000
_cell_angle_gamma   90.00000000
_symmetry_Int_Tables_number   1
_chemical_formula_structural   YPd2Pb
_chemical_formula_sum   'Y4 Pd8 Pb4'
_cell_volume   311.39002295
_cell_formula_units_Z   4
loop_
 _symmetry_equiv_pos_site_id
 _symmetry_equiv_pos_as_xyz
  1  'x, y, z'
loop_
 _atom_type_symbol
 _atom_type_oxidation_number
  Y0+  0.0
  Pd0+  0.0
  Pb0+  0.0
loop_
 _atom_site_type_symbol
 _atom_site_label
 _atom_site_symmetry_multiplicity
 _atom_site_fract_x
 _atom_site_fract_y
 _atom_site_fract_z
 _atom_site_occupancy
  Y0+  Y0  1  0.50000000  0.50000000  0.50000000  1.0
  Y0+  Y1  1  0.50000000  0.00000000  0.00000000  1.0
  Y0+  Y2  1  0.00000000  0.50000000  0.00000000  1.0
  Y0+  Y3  1  0.00000000  0.00000000  0.50000000  1.0
  Pd0+  Pd4  1  0.25000000  0.25000000  0.75000000  1.0
  Pd0+  Pd5  1  0.25000000  0.75000000  0.25000000  1.0
  Pd0+  Pd6  1  0.75000000  0.25000000  0.25000000  1.0
  Pd0+  Pd7  1  0.75000000  0.75000000  0.75000000  1.0
  Pd0+  Pd8  1  0.75000000  0.75000000  0.25000000  1.0
  Pd0+  Pd9  1  0.75000000  0.25000000  0.75000000  1.0
  Pd0+  Pd10  1  0.25000000  0.75000000  0.75000000  1.0
  Pd0+  Pd11  1  0.25000000  0.25000000  0.25000000  1.0
  Pb0+  Pb12  1  0.00000000  0.00000000  0.00000000  1.0
  Pb0+  Pb13  1  0.00000000  0.50000000  0.50000000  1.0
  Pb0+  Pb14  1  0.50000000  0.00000000  0.50000000  1.0
  Pb0+  Pb15  1  0.50000000  0.50000000  0.00000000  1.0
