data_3D\Atomistic
_audit_creation_date              2022-02-02
_audit_creation_method            'Materials Studio'
_symmetry_space_group_name_H-M    'P42/MMC'
_symmetry_Int_Tables_number       131
_symmetry_cell_setting            tetragonal
loop_
_symmetry_equiv_pos_as_xyz
  x,y,z
  -x,-y,z
  -y,x,z+1/2
  y,-x,z+1/2
  -x,y,-z
  x,-y,-z
  y,x,-z+1/2
  -y,-x,-z+1/2
  -x,-y,-z
  x,y,-z
  y,-x,-z+1/2
  -y,x,-z+1/2
  x,-y,z
  -x,y,z
  -y,-x,z+1/2
  y,x,z+1/2
_cell_length_a                    3.0330
_cell_length_b                    3.0330
_cell_length_c                    3.3180
_cell_angle_alpha                 90.0000
_cell_angle_beta                  90.0000
_cell_angle_gamma                 90.0000
loop_
_atom_site_label
_atom_site_type_symbol
_atom_site_fract_x
_atom_site_fract_y
_atom_site_fract_z
_atom_site_U_iso_or_equiv
_atom_site_adp_type
_atom_site_occupancy
Ge1    Ge    0.00000   0.50000   0.00000   0.00000  Uiso   1.00
H2     H     0.00000   0.00000   0.25000   0.00000  Uiso   1.00
H3     H     0.22440   0.50000   0.50000   0.00000  Uiso   1.00
loop_
_geom_bond_atom_site_label_1
_geom_bond_atom_site_label_2
_geom_bond_distance
_geom_bond_site_symmetry_2
_ccdc_geom_bond_type
Ge1    Ge1     2.711   3_564 S
Ge1    Ge1     2.711   3_654 S
Ge1    Ge1     2.711   3_665 S
Ge1    Ge1     2.711   3     S
Ge1    Ge1     2.711   3_655 S
Ge1    Ge1     2.711   3_565 S
Ge1    Ge1     2.711   3_554 S
Ge1    Ge1     2.711   3_664 S
Ge1    H2      1.729   .     S
Ge1    H2      1.729   1_565 S
Ge1    H2      1.729   3_554 S
Ge1    H2      1.729   3_564 S
Ge1    H3      1.793   .     S
Ge1    H3      1.793   2_565 S
Ge1    H3      1.793   2_564 S
Ge1    H3      1.793   1_554 S
Ge1    H3      1.732   4_564 S
Ge1    H3      1.732   3_554 S
Ge1    H3      1.732   4_464 S
Ge1    H3      1.732   3_654 S
H2     Ge1     1.729   1_545 S
H2     Ge1     1.729   3_655 S
H2     Ge1     1.729   3     S
H3     Ge1     1.793   1_556 S
H3     Ge1     1.732   3_655 S
H3     Ge1     1.732   3_665 S
