data_3D\Atomistic
_audit_creation_date              2022-02-01
_audit_creation_method            'Materials Studio'
_symmetry_space_group_name_H-M    'CMCM'
_symmetry_Int_Tables_number       63
_symmetry_cell_setting            orthorhombic
loop_
_symmetry_equiv_pos_as_xyz
  x,y,z
  -x,-y,z+1/2
  -x,y,-z+1/2
  x,-y,-z
  -x,-y,-z
  x,y,-z+1/2
  x,-y,z+1/2
  -x,y,z
  x+1/2,y+1/2,z
  -x+1/2,-y+1/2,z+1/2
  -x+1/2,y+1/2,-z+1/2
  x+1/2,-y+1/2,-z
  -x+1/2,-y+1/2,-z
  x+1/2,y+1/2,-z+1/2
  x+1/2,-y+1/2,z+1/2
  -x+1/2,y+1/2,z
_cell_length_a                    3.1420
_cell_length_b                    4.7800
_cell_length_c                    4.7900
_cell_angle_alpha                 90.0000
_cell_angle_beta                  90.0000
_cell_angle_gamma                 90.0000
loop_
_atom_site_label
_atom_site_type_symbol
_atom_site_fract_x
_atom_site_fract_y
_atom_site_fract_z
_atom_site_U_iso_or_equiv
_atom_site_adp_type
_atom_site_occupancy
H1     H    -0.22000  -0.41400  -0.05100   0.00000  Uiso   1.00
H2     H     0.00000  -0.25300  -0.88800   0.00000  Uiso   1.00
H3     H     0.00000  -0.51100   0.25000   0.00000  Uiso   1.00
Sc4    Sc    0.00000  -0.15200  -0.25000   0.00000  Uiso   1.00
loop_
_geom_bond_atom_site_label_1
_geom_bond_atom_site_label_2
_geom_bond_distance
_geom_bond_site_symmetry_2
_ccdc_geom_bond_type
H1     Sc4     1.725   9_445 S
H1     Sc4     1.718   10_445 S
H2     Sc4     1.800   1_554 S
H2     Sc4     2.046   2_554 S
H2     Sc4     1.764   10_444 S
H2     Sc4     1.764   10_544 S
H3     Sc4     1.754   10_545 S
H3     Sc4     1.754   10_445 S
H3     Sc4     1.611   2_545 S
Sc4    Sc4     3.142   1_655 S
Sc4    Sc4     3.142   1_455 S
Sc4    H1      1.725   9     S
Sc4    H1      1.725   11_454 S
Sc4    H1      1.725   14_554 S
Sc4    H1      1.725   16_455 S
Sc4    H1      1.718   12_545 S
Sc4    H1      1.718   10_444 S
Sc4    H1      1.718   15_544 S
Sc4    H1      1.718   13_445 S
Sc4    H2      1.800   1_556 S
Sc4    H2      1.800   3_553 S
Sc4    H2      2.046   4_554 S
Sc4    H2      2.046   2     S
Sc4    H2      1.764   12_544 S
Sc4    H2      1.764   10_445 S
Sc4    H2      1.764   10_545 S
Sc4    H2      1.764   12_444 S
Sc4    H3      1.754   10_544 S
Sc4    H3      1.754   10_444 S
Sc4    Sc4     2.860   9     S
Sc4    Sc4     2.860   9_455 S
Sc4    Sc4     2.860   9_445 S
Sc4    Sc4     2.860   9_545 S
Sc4    Sc4     2.801   2     S
Sc4    Sc4     2.801   2_554 S
Sc4    H1      1.719   8     S
Sc4    H1      1.719   6_554 S
Sc4    H1      1.719   3_554 S
Sc4    H3      1.611   2_544 S
Sc4    Sc4     3.014   10_545 S
Sc4    Sc4     3.014   10_444 S
Sc4    Sc4     3.014   10_544 S
Sc4    Sc4     3.014   10_445 S
