# generated using pymatgen
data_CaYH12
_symmetry_space_group_name_H-M   'P 1'
_cell_length_a   6.91970015
_cell_length_b   6.91970015
_cell_length_c   6.91970015
_cell_angle_alpha   90.00000000
_cell_angle_beta   90.00000000
_cell_angle_gamma   90.00000000
_symmetry_Int_Tables_number   1
_chemical_formula_structural   CaYH12
_chemical_formula_sum   'Ca8 Y8 H96'
_cell_volume   331.33081304
_cell_formula_units_Z   8
loop_
 _symmetry_equiv_pos_site_id
 _symmetry_equiv_pos_as_xyz
  1  'x, y, z'
loop_
 _atom_site_type_symbol
 _atom_site_label
 _atom_site_symmetry_multiplicity
 _atom_site_fract_x
 _atom_site_fract_y
 _atom_site_fract_z
 _atom_site_occupancy
  Ca  Ca0  1  0.75000000  0.25000000  0.25000000  1
  Ca  Ca1  1  0.25000000  0.25000000  0.75000000  1
  Ca  Ca2  1  0.75000000  0.75000000  0.75000000  1
  Ca  Ca3  1  0.25000000  0.75000000  0.25000000  1
  Ca  Ca4  1  0.00000000  0.00000000  0.50000000  1
  Ca  Ca5  1  0.00000000  0.50000000  0.00000000  1
  Ca  Ca6  1  0.50000000  0.00000000  0.00000000  1
  Ca  Ca7  1  0.50000000  0.50000000  0.50000000  1
  Y  Y8  1  0.25000000  0.75000000  0.75000000  1
  Y  Y9  1  0.75000000  0.75000000  0.25000000  1
  Y  Y10  1  0.25000000  0.25000000  0.25000000  1
  Y  Y11  1  0.75000000  0.25000000  0.75000000  1
  Y  Y12  1  0.50000000  0.50000000  0.00000000  1
  Y  Y13  1  0.50000000  0.00000000  0.50000000  1
  Y  Y14  1  0.00000000  0.50000000  0.50000000  1
  Y  Y15  1  0.00000000  0.00000000  0.00000000  1
  H  H16  1  0.25430000  0.37500000  0.50430000  1
  H  H17  1  0.74570000  0.12500000  0.00430000  1
  H  H18  1  0.24570000  0.87500000  0.49570000  1
  H  H19  1  0.75430000  0.62500000  0.99570000  1
  H  H20  1  0.50430000  0.25430000  0.37500000  1
  H  H21  1  0.00430000  0.74570000  0.12500000  1
  H  H22  1  0.49570000  0.24570000  0.87500000  1
  H  H23  1  0.99570000  0.75430000  0.62500000  1
  H  H24  1  0.37500000  0.50430000  0.25430000  1
  H  H25  1  0.12500000  0.00430000  0.74570000  1
  H  H26  1  0.87500000  0.49570000  0.24570000  1
  H  H27  1  0.62500000  0.99570000  0.75430000  1
  H  H28  1  0.12500000  0.50430000  0.24570000  1
  H  H29  1  0.87500000  0.99570000  0.74570000  1
  H  H30  1  0.62500000  0.49570000  0.25430000  1
  H  H31  1  0.37500000  0.00430000  0.75430000  1
  H  H32  1  0.00430000  0.75430000  0.37500000  1
  H  H33  1  0.49570000  0.25430000  0.62500000  1
  H  H34  1  0.99570000  0.74570000  0.87500000  1
  H  H35  1  0.50430000  0.24570000  0.12500000  1
  H  H36  1  0.25430000  0.62500000  0.49570000  1
  H  H37  1  0.75430000  0.37500000  0.00430000  1
  H  H38  1  0.24570000  0.12500000  0.50430000  1
  H  H39  1  0.74570000  0.87500000  0.99570000  1
  H  H40  1  0.99570000  0.87500000  0.74570000  1
  H  H41  1  0.50430000  0.12500000  0.24570000  1
  H  H42  1  0.00430000  0.37500000  0.75430000  1
  H  H43  1  0.49570000  0.62500000  0.25430000  1
  H  H44  1  0.74570000  0.99570000  0.87500000  1
  H  H45  1  0.24570000  0.50430000  0.12500000  1
  H  H46  1  0.75430000  0.00430000  0.37500000  1
  H  H47  1  0.25430000  0.49570000  0.62500000  1
  H  H48  1  0.87500000  0.74570000  0.99570000  1
  H  H49  1  0.12500000  0.24570000  0.50430000  1
  H  H50  1  0.37500000  0.75430000  0.00430000  1
  H  H51  1  0.62500000  0.25430000  0.49570000  1
  H  H52  1  0.12500000  0.74570000  0.00430000  1
  H  H53  1  0.37500000  0.25430000  0.50430000  1
  H  H54  1  0.62500000  0.75430000  0.99570000  1
  H  H55  1  0.87500000  0.24570000  0.49570000  1
  H  H56  1  0.24570000  0.49570000  0.87500000  1
  H  H57  1  0.75430000  0.99570000  0.62500000  1
  H  H58  1  0.25430000  0.50430000  0.37500000  1
  H  H59  1  0.74570000  0.00430000  0.12500000  1
  H  H60  1  0.99570000  0.62500000  0.75430000  1
  H  H61  1  0.49570000  0.87500000  0.24570000  1
  H  H62  1  0.00430000  0.12500000  0.74570000  1
  H  H63  1  0.50430000  0.37500000  0.25430000  1
  H  H64  1  0.25430000  0.87500000  0.00430000  1
  H  H65  1  0.74570000  0.62500000  0.50430000  1
  H  H66  1  0.24570000  0.37500000  0.99570000  1
  H  H67  1  0.75430000  0.12500000  0.49570000  1
  H  H68  1  0.50430000  0.75430000  0.87500000  1
  H  H69  1  0.00430000  0.24570000  0.62500000  1
  H  H70  1  0.49570000  0.74570000  0.37500000  1
  H  H71  1  0.99570000  0.25430000  0.12500000  1
  H  H72  1  0.00430000  0.25430000  0.87500000  1
  H  H73  1  0.49570000  0.75430000  0.12500000  1
  H  H74  1  0.99570000  0.24570000  0.37500000  1
  H  H75  1  0.50430000  0.74570000  0.62500000  1
  H  H76  1  0.25430000  0.12500000  0.99570000  1
  H  H77  1  0.75430000  0.87500000  0.50430000  1
  H  H78  1  0.24570000  0.62500000  0.00430000  1
  H  H79  1  0.74570000  0.37500000  0.49570000  1
  H  H80  1  0.99570000  0.37500000  0.24570000  1
  H  H81  1  0.50430000  0.62500000  0.74570000  1
  H  H82  1  0.00430000  0.87500000  0.25430000  1
  H  H83  1  0.49570000  0.12500000  0.75430000  1
  H  H84  1  0.74570000  0.49570000  0.37500000  1
  H  H85  1  0.24570000  0.00430000  0.62500000  1
  H  H86  1  0.75430000  0.50430000  0.87500000  1
  H  H87  1  0.25430000  0.99570000  0.12500000  1
  H  H88  1  0.24570000  0.99570000  0.37500000  1
  H  H89  1  0.75430000  0.49570000  0.12500000  1
  H  H90  1  0.25430000  0.00430000  0.87500000  1
  H  H91  1  0.74570000  0.50430000  0.62500000  1
  H  H92  1  0.99570000  0.12500000  0.25430000  1
  H  H93  1  0.49570000  0.37500000  0.74570000  1
  H  H94  1  0.00430000  0.62500000  0.24570000  1
  H  H95  1  0.50430000  0.87500000  0.75430000  1
  H  H96  1  0.87500000  0.50430000  0.75430000  1
  H  H97  1  0.62500000  0.00430000  0.24570000  1
  H  H98  1  0.37500000  0.49570000  0.74570000  1
  H  H99  1  0.12500000  0.99570000  0.25430000  1
  H  H100  1  0.62500000  0.50430000  0.74570000  1
  H  H101  1  0.37500000  0.99570000  0.24570000  1
  H  H102  1  0.12500000  0.49570000  0.75430000  1
  H  H103  1  0.87500000  0.00430000  0.25430000  1
  H  H104  1  0.37500000  0.74570000  0.49570000  1
  H  H105  1  0.62500000  0.24570000  0.00430000  1
  H  H106  1  0.87500000  0.75430000  0.50430000  1
  H  H107  1  0.12500000  0.25430000  0.99570000  1
  H  H108  1  0.62500000  0.74570000  0.50430000  1
  H  H109  1  0.87500000  0.25430000  0.00430000  1
  H  H110  1  0.12500000  0.75430000  0.49570000  1
  H  H111  1  0.37500000  0.24570000  0.99570000  1
