# generated using pymatgen
data_Zr3H10
_symmetry_space_group_name_H-M   'P 1'
_cell_length_a   4.66100000
_cell_length_b   4.66100000
_cell_length_c   2.63100000
_cell_angle_alpha   90.00000000
_cell_angle_beta   90.00000000
_cell_angle_gamma   120.00000000
_symmetry_Int_Tables_number   1
_chemical_formula_structural   Zr3H10
_chemical_formula_sum   'Zr6 H20'
_cell_volume   49.50051139
_cell_formula_units_Z   2
loop_
 _symmetry_equiv_pos_site_id
 _symmetry_equiv_pos_as_xyz
  1  'x, y, z'
loop_
 _atom_site_type_symbol
 _atom_site_label
 _atom_site_symmetry_multiplicity
 _atom_site_fract_x
 _atom_site_fract_y
 _atom_site_fract_z
 _atom_site_occupancy
  H  H0  1  0.37000000  0.07600000  0.25000000  1
  H  H1  1  0.63000000  0.92400000  0.75000000  1
  H  H2  1  0.92400000  0.29400000  0.25000000  1
  H  H3  1  0.07600000  0.70600000  0.75000000  1
  H  H4  1  0.70600000  0.63000000  0.25000000  1
  H  H5  1  0.29400000  0.37000000  0.75000000  1
  H  H6  1  0.07600000  0.37000000  0.75000000  1
  H  H7  1  0.92400000  0.63000000  0.25000000  1
  H  H8  1  0.29400000  0.92400000  0.75000000  1
  H  H9  1  0.70600000  0.07600000  0.25000000  1
  H  H10  1  0.63000000  0.70600000  0.75000000  1
  H  H11  1  0.37000000  0.29400000  0.25000000  1
  H  H12  1  0.88600000  0.11400000  0.75000000  1
  H  H13  1  0.11400000  0.88600000  0.25000000  1
  H  H14  1  0.88600000  0.77200000  0.75000000  1
  H  H15  1  0.11400000  0.22800000  0.25000000  1
  H  H16  1  0.22800000  0.11400000  0.75000000  1
  H  H17  1  0.77200000  0.88600000  0.25000000  1
  H  H18  1  0.00000000  0.00000000  0.25000000  1
  H  H19  1  0.00000000  0.00000000  0.75000000  1
  Zr  Zr20  1  0.66700000  0.33300000  0.75000000  1
  Zr  Zr21  1  0.33300000  0.66700000  0.25000000  1
  Zr  Zr22  1  0.66700000  0.33400000  0.75000000  1
  Zr  Zr23  1  0.33300000  0.66600000  0.25000000  1
  Zr  Zr24  1  0.66600000  0.33300000  0.75000000  1
  Zr  Zr25  1  0.33400000  0.66700000  0.25000000  1
