# generated using pymatgen
data_TbH12
_symmetry_space_group_name_H-M   'P 1'
_cell_length_a   2.60800004
_cell_length_b   2.60800004
_cell_length_c   8.24699974
_cell_angle_alpha   90.00000000
_cell_angle_beta   90.00000000
_cell_angle_gamma   90.00000000
_symmetry_Int_Tables_number   1
_chemical_formula_structural   TbH12
_chemical_formula_sum   'Tb2 H24'
_cell_volume   56.09332297
_cell_formula_units_Z   2
loop_
 _symmetry_equiv_pos_site_id
 _symmetry_equiv_pos_as_xyz
  1  'x, y, z'
loop_
 _atom_site_type_symbol
 _atom_site_label
 _atom_site_symmetry_multiplicity
 _atom_site_fract_x
 _atom_site_fract_y
 _atom_site_fract_z
 _atom_site_occupancy
  Tb  Tb0  1  0.50000000  0.50000000  0.00000000  1
  Tb  Tb1  1  0.00000000  0.00000000  0.50000000  1
  H  H2  1  0.00000000  0.50000000  0.66298002  1
  H  H3  1  0.00000000  0.50000000  0.16298008  1
  H  H4  1  0.50000000  0.00000000  0.83701998  1
  H  H5  1  0.50000000  0.00000000  0.33701998  1
  H  H6  1  0.50000000  0.50000000  0.41866000  1
  H  H7  1  0.00000000  0.00000000  0.91866003  1
  H  H8  1  0.00000000  0.00000000  0.08133998  1
  H  H9  1  0.50000000  0.50000000  0.58133997  1
  H  H10  1  0.50000000  0.32315999  0.77828997  1
  H  H11  1  0.50000000  0.67683998  0.77828997  1
  H  H12  1  0.17684001  0.00000000  0.27829003  1
  H  H13  1  0.82315997  0.00000000  0.27829003  1
  H  H14  1  0.00000000  0.82315997  0.72171003  1
  H  H15  1  0.00000000  0.17684001  0.72171003  1
  H  H16  1  0.32315999  0.50000000  0.22171003  1
  H  H17  1  0.67683998  0.50000000  0.22171003  1
  H  H18  1  0.00000000  0.67732002  0.84344002  1
  H  H19  1  0.00000000  0.32268000  0.84344002  1
  H  H20  1  0.82268002  0.50000000  0.34344005  1
  H  H21  1  0.17732000  0.50000000  0.34344005  1
  H  H22  1  0.50000000  0.17732000  0.65655998  1
  H  H23  1  0.50000000  0.82268002  0.65655998  1
  H  H24  1  0.67732002  0.00000000  0.15656001  1
  H  H25  1  0.32268000  0.00000000  0.15656001  1
