# generated using pymatgen
data_Li(PH7)2
_symmetry_space_group_name_H-M   'P 1'
_cell_length_a   3.69000000
_cell_length_b   3.69000000
_cell_length_c   3.69000000
_cell_angle_alpha   57.30000000
_cell_angle_beta   57.30000000
_cell_angle_gamma   57.30000000
_symmetry_Int_Tables_number   1
_chemical_formula_structural   Li(PH7)2
_chemical_formula_sum   'Li9 P18 H126'
_cell_volume   33.31898933
_cell_formula_units_Z   9
loop_
 _symmetry_equiv_pos_site_id
 _symmetry_equiv_pos_as_xyz
  1  'x, y, z'
loop_
 _atom_site_type_symbol
 _atom_site_label
 _atom_site_symmetry_multiplicity
 _atom_site_fract_x
 _atom_site_fract_y
 _atom_site_fract_z
 _atom_site_occupancy
  Li  Li0  1  0.50000000  0.50000000  0.50000000  1
  Li  Li1  1  0.50000000  -0.00000000  0.50000000  1
  Li  Li2  1  -0.00000000  0.50000000  0.50000000  1
  Li  Li3  1  0.16666667  0.83333333  0.83333333  1
  Li  Li4  1  0.16666667  0.33333333  0.83333333  1
  Li  Li5  1  0.66666667  0.83333333  0.83333333  1
  Li  Li6  1  0.83333333  0.16666667  0.16666667  1
  Li  Li7  1  0.83333333  0.66666667  0.16666667  1
  Li  Li8  1  0.33333333  0.16666667  0.16666667  1
  P  P9  1  0.88800000  0.88800000  0.88800000  1
  P  P10  1  0.11200000  0.11200000  0.11200000  1
  P  P11  1  0.11200000  0.00000000  0.88800000  1
  P  P12  1  0.88800000  0.00000000  0.11200000  1
  P  P13  1  -0.00000000  0.11200000  0.88800000  1
  P  P14  1  -0.00000000  0.88800000  0.11200000  1
  P  P15  1  0.55466667  0.22133333  0.22133333  1
  P  P16  1  0.77866667  0.44533333  0.44533333  1
  P  P17  1  0.77866667  0.33333333  0.22133333  1
  P  P18  1  0.55466667  0.33333333  0.44533333  1
  P  P19  1  0.66666667  0.44533334  0.22133333  1
  P  P20  1  0.66666667  0.22133333  0.44533333  1
  P  P21  1  0.22133333  0.55466667  0.55466667  1
  P  P22  1  0.44533333  0.77866667  0.77866667  1
  P  P23  1  0.44533333  0.66666667  0.55466667  1
  P  P24  1  0.22133334  0.66666667  0.77866667  1
  P  P25  1  0.33333333  0.77866667  0.55466667  1
  P  P26  1  0.33333333  0.55466667  0.77866667  1
  H  H27  1  0.66000000  0.66000000  0.66000000  1
  H  H28  1  0.34000000  0.34000000  0.34000000  1
  H  H29  1  0.34000000  -0.00000000  0.66000000  1
  H  H30  1  0.66000000  -0.00000000  0.34000000  1
  H  H31  1  -0.00000000  0.34000000  0.66000000  1
  H  H32  1  -0.00000000  0.66000000  0.34000000  1
  H  H33  1  0.32666667  0.99333333  0.99333333  1
  H  H34  1  0.00666667  0.67333333  0.67333333  1
  H  H35  1  0.00666667  0.33333333  0.99333333  1
  H  H36  1  0.32666667  0.33333333  0.67333333  1
  H  H37  1  0.66666667  0.67333333  0.99333333  1
  H  H38  1  0.66666667  0.99333333  0.67333333  1
  H  H39  1  0.99333333  0.32666667  0.32666667  1
  H  H40  1  0.67333333  0.00666667  0.00666667  1
  H  H41  1  0.67333333  0.66666667  0.32666667  1
  H  H42  1  0.99333333  0.66666667  0.00666667  1
  H  H43  1  0.33333333  0.00666667  0.32666667  1
  H  H44  1  0.33333333  0.32666667  0.00666667  1
  H  H45  1  0.45700000  0.27300000  0.97000000  1
  H  H46  1  0.54300000  0.72700000  0.03000000  1
  H  H47  1  0.72700000  0.18400000  0.97000000  1
  H  H48  1  0.27300000  0.81600000  0.03000000  1
  H  H49  1  0.81600000  0.54300000  0.97000000  1
  H  H50  1  0.18400000  0.45700000  0.03000000  1
  H  H51  1  0.12366667  0.60633333  0.30333333  1
  H  H52  1  0.20966667  0.06033333  0.36333333  1
  H  H53  1  0.39366667  0.51733333  0.30333333  1
  H  H54  1  0.93966667  0.14933333  0.36333333  1
  H  H55  1  0.48266667  0.87633333  0.30333333  1
  H  H56  1  0.85066667  0.79033333  0.36333333  1
  H  H57  1  0.79033333  0.93966667  0.63666667  1
  H  H58  1  0.87633333  0.39366667  0.69666667  1
  H  H59  1  0.06033333  0.85066667  0.63666667  1
  H  H60  1  0.60633333  0.48266667  0.69666667  1
  H  H61  1  0.14933333  0.20966667  0.63666667  1
  H  H62  1  0.51733333  0.12366667  0.69666667  1
  H  H63  1  0.27300000  0.97000000  0.45700000  1
  H  H64  1  0.72700000  0.03000000  0.54300000  1
  H  H65  1  0.03000000  0.30300000  0.45700000  1
  H  H66  1  0.97000000  0.69700000  0.54300000  1
  H  H67  1  0.69700000  0.72700000  0.45700000  1
  H  H68  1  0.30300000  0.27300000  0.54300000  1
  H  H69  1  0.93966666  0.30333333  0.79033334  1
  H  H70  1  0.39366666  0.36333333  0.87633333  1
  H  H71  1  0.69666667  0.63633333  0.79033334  1
  H  H72  1  0.63666667  0.03033333  0.87633333  1
  H  H73  1  0.36366667  0.06033333  0.79033334  1
  H  H74  1  0.96966667  0.60633333  0.87633333  1
  H  H75  1  0.60633333  0.63666667  0.12366667  1
  H  H76  1  0.06033333  0.69666667  0.20966667  1
  H  H77  1  0.36333333  0.96966667  0.12366667  1
  H  H78  1  0.30333333  0.36366667  0.20966667  1
  H  H79  1  0.03033333  0.39366666  0.12366667  1
  H  H80  1  0.63633333  0.93966667  0.20966667  1
  H  H81  1  0.97000000  0.45700000  0.27300000  1
  H  H82  1  0.03000000  0.54300000  0.72700000  1
  H  H83  1  0.54300000  0.51300000  0.27300000  1
  H  H84  1  0.45700000  0.48700000  0.72700000  1
  H  H85  1  0.48700000  0.03000000  0.27300000  1
  H  H86  1  0.51300000  0.97000000  0.72700000  1
  H  H87  1  0.63666667  0.79033333  0.60633333  1
  H  H88  1  0.69666667  0.87633334  0.06033333  1
  H  H89  1  0.20966667  0.84633333  0.60633333  1
  H  H90  1  0.12366667  0.82033333  0.06033333  1
  H  H91  1  0.15366667  0.36333333  0.60633333  1
  H  H92  1  0.17966667  0.30333333  0.06033333  1
  H  H93  1  0.30333333  0.12366667  0.93966667  1
  H  H94  1  0.36333333  0.20966667  0.39366667  1
  H  H95  1  0.87633333  0.17966667  0.93966667  1
  H  H96  1  0.79033333  0.15366667  0.39366667  1
  H  H97  1  0.82033333  0.69666667  0.93966667  1
  H  H98  1  0.84633333  0.63666667  0.39366667  1
  H  H99  1  0.65000000  0.87900000  0.35600000  1
  H  H100  1  0.35000000  0.12100000  0.64400000  1
  H  H101  1  0.12100000  0.77100000  0.35600000  1
  H  H102  1  0.87900000  0.22900000  0.64400000  1
  H  H103  1  0.22900000  0.35000000  0.35600000  1
  H  H104  1  0.77100000  0.65000000  0.64400000  1
  H  H105  1  0.31666667  0.21233333  0.68933333  1
  H  H106  1  0.01666667  0.45433333  0.97733333  1
  H  H107  1  0.78766667  0.10433333  0.68933333  1
  H  H108  1  0.54566667  0.56233333  0.97733333  1
  H  H109  1  0.89566667  0.68333333  0.68933333  1
  H  H110  1  0.43766667  0.98333333  0.97733333  1
  H  H111  1  0.98333333  0.54566667  0.02266667  1
  H  H112  1  0.68333333  0.78766667  0.31066667  1
  H  H113  1  0.45433333  0.43766667  0.02266667  1
  H  H114  1  0.21233334  0.89566667  0.31066667  1
  H  H115  1  0.56233333  0.01666667  0.02266667  1
  H  H116  1  0.10433333  0.31666667  0.31066667  1
  H  H117  1  0.87900000  0.35600000  0.65000000  1
  H  H118  1  0.12100000  0.64400000  0.35000000  1
  H  H119  1  0.64400000  0.52300000  0.65000000  1
  H  H120  1  0.35600000  0.47700000  0.35000000  1
  H  H121  1  0.47700000  0.12100000  0.65000000  1
  H  H122  1  0.52300000  0.87900000  0.35000000  1
  H  H123  1  0.54566667  0.68933333  0.98333333  1
  H  H124  1  0.78766667  0.97733333  0.68333333  1
  H  H125  1  0.31066667  0.85633333  0.98333333  1
  H  H126  1  0.02266667  0.81033333  0.68333333  1
  H  H127  1  0.14366667  0.45433333  0.98333333  1
  H  H128  1  0.18966667  0.21233333  0.68333333  1
  H  H129  1  0.21233333  0.02266667  0.31666667  1
  H  H130  1  0.45433333  0.31066667  0.01666667  1
  H  H131  1  0.97733333  0.18966667  0.31666667  1
  H  H132  1  0.68933333  0.14366667  0.01666667  1
  H  H133  1  0.81033333  0.78766667  0.31666667  1
  H  H134  1  0.85633333  0.54566667  0.01666667  1
  H  H135  1  0.35600000  0.65000000  0.87900000  1
  H  H136  1  0.64400000  0.35000000  0.12100000  1
  H  H137  1  0.35000000  0.70600000  0.87900000  1
  H  H138  1  0.65000000  0.29400000  0.12100000  1
  H  H139  1  0.29400000  0.64400000  0.87900000  1
  H  H140  1  0.70600000  0.35600000  0.12100000  1
  H  H141  1  0.02266667  0.98333333  0.21233333  1
  H  H142  1  0.31066667  0.68333333  0.45433333  1
  H  H143  1  0.01666667  0.03933333  0.21233333  1
  H  H144  1  0.31666667  0.62733333  0.45433333  1
  H  H145  1  0.96066667  0.97733333  0.21233333  1
  H  H146  1  0.37266667  0.68933333  0.45433333  1
  H  H147  1  0.68933333  0.31666667  0.54566667  1
  H  H148  1  0.97733333  0.01666667  0.78766667  1
  H  H149  1  0.68333333  0.37266667  0.54566667  1
  H  H150  1  0.98333333  0.96066667  0.78766667  1
  H  H151  1  0.62733333  0.31066667  0.54566667  1
  H  H152  1  0.03933333  0.02266667  0.78766667  1
