# generated using pymatgen
data_H8Pb
_symmetry_space_group_name_H-M   'P 1'
_cell_length_a   7.18400000
_cell_length_b   2.80700000
_cell_length_c   2.97300000
_cell_angle_alpha   90.00000000
_cell_angle_beta   68.09999800
_cell_angle_gamma   90.00000000
_symmetry_Int_Tables_number   1
_chemical_formula_structural   H8Pb
_chemical_formula_sum   'H16 Pb2'
_cell_volume   55.62563444
_cell_formula_units_Z   2
loop_
 _symmetry_equiv_pos_site_id
 _symmetry_equiv_pos_as_xyz
  1  'x, y, z'
loop_
 _atom_site_type_symbol
 _atom_site_label
 _atom_site_symmetry_multiplicity
 _atom_site_fract_x
 _atom_site_fract_y
 _atom_site_fract_z
 _atom_site_occupancy
  Pb  Pb0  1  0.00000000  0.00000000  0.00000000  1
  Pb  Pb1  1  0.50000000  0.50000000  0.00000000  1
  H  H2  1  0.22266000  0.00000000  0.30255000  1
  H  H3  1  0.77734000  0.00000000  0.69745000  1
  H  H4  1  0.72266000  0.50000000  0.30255000  1
  H  H5  1  0.27734000  0.50000000  0.69745000  1
  H  H6  1  0.20774000  0.50000000  0.42086000  1
  H  H7  1  0.79226000  0.50000000  0.57914000  1
  H  H8  1  0.70774000  0.00000000  0.42086000  1
  H  H9  1  0.29226000  0.00000000  0.57914000  1
  H  H10  1  0.21367000  0.50000000  0.97864000  1
  H  H11  1  0.78633000  0.50000000  0.02136000  1
  H  H12  1  0.71367000  0.00000000  0.97864000  1
  H  H13  1  0.28633000  0.00000000  0.02136000  1
  H  H14  1  0.09142000  0.50000000  0.43768000  1
  H  H15  1  0.90858000  0.50000000  0.56232000  1
  H  H16  1  0.59142000  0.00000000  0.43768000  1
  H  H17  1  0.40858000  0.00000000  0.56232000  1
