# generated using pymatgen
data_ScH4
_symmetry_space_group_name_H-M   'P 1'
_cell_length_a   2.55800000
_cell_length_b   2.55800000
_cell_length_c   4.73800000
_cell_angle_alpha   90.00000000
_cell_angle_beta   90.00000000
_cell_angle_gamma   90.00000000
_symmetry_Int_Tables_number   1
_chemical_formula_structural   ScH4
_chemical_formula_sum   'Sc2 H8'
_cell_volume   31.00245863
_cell_formula_units_Z   2
loop_
 _symmetry_equiv_pos_site_id
 _symmetry_equiv_pos_as_xyz
  1  'x, y, z'
loop_
 _atom_site_type_symbol
 _atom_site_label
 _atom_site_symmetry_multiplicity
 _atom_site_fract_x
 _atom_site_fract_y
 _atom_site_fract_z
 _atom_site_occupancy
  Sc  Sc0  1  0.50000000  0.50000000  0.00000000  1
  Sc  Sc1  1  0.00000000  0.00000000  0.50000000  1
  H  H2  1  0.50000000  0.00000000  0.75000000  1
  H  H3  1  0.00000000  0.50000000  0.75000000  1
  H  H4  1  0.50000000  0.00000000  0.25000000  1
  H  H5  1  0.00000000  0.50000000  0.25000000  1
  H  H6  1  0.00000000  0.00000000  0.87100000  1
  H  H7  1  0.00000000  0.00000000  0.12900000  1
  H  H8  1  0.50000000  0.50000000  0.37100000  1
  H  H9  1  0.50000000  0.50000000  0.62900000  1
