# generated using pymatgen
data_YH6S
_symmetry_space_group_name_H-M   'P 1'
_cell_length_a   2.71700001
_cell_length_b   2.71700001
_cell_length_c   7.78000021
_cell_angle_alpha   90.00000000
_cell_angle_beta   90.00000000
_cell_angle_gamma   90.00000000
_symmetry_Int_Tables_number   1
_chemical_formula_structural   YH6S
_chemical_formula_sum   'Y2 H12 S2'
_cell_volume   57.43265429
_cell_formula_units_Z   2
loop_
 _symmetry_equiv_pos_site_id
 _symmetry_equiv_pos_as_xyz
  1  'x, y, z'
loop_
 _atom_site_type_symbol
 _atom_site_label
 _atom_site_symmetry_multiplicity
 _atom_site_fract_x
 _atom_site_fract_y
 _atom_site_fract_z
 _atom_site_occupancy
  H  H0  1  0.50000000  0.66700000  0.66399997  1
  H  H1  1  0.50000000  0.33300000  0.33600002  1
  H  H2  1  0.50000000  0.33300000  0.66399997  1
  H  H3  1  0.50000000  0.66700000  0.33600002  1
  H  H4  1  0.33300000  0.50000000  0.16399998  1
  H  H5  1  0.66700000  0.50000000  0.83600003  1
  H  H6  1  0.66700000  0.50000000  0.16399998  1
  H  H7  1  0.33300000  0.50000000  0.83600003  1
  H  H8  1  0.50000000  0.00000000  0.56099999  1
  H  H9  1  0.50000000  0.00000000  0.43900001  1
  H  H10  1  0.00000000  0.50000000  0.06099999  1
  H  H11  1  0.00000000  0.50000000  0.93900001  1
  S  S12  1  0.00000000  0.00000000  0.75000000  1
  S  S13  1  0.00000000  0.00000000  0.25000000  1
  Y  Y14  1  0.50000000  0.00000000  0.00000000  1
  Y  Y15  1  0.00000000  0.50000000  0.50000000  1
