# generated using pymatgen
data_H5(SN)2
_symmetry_space_group_name_H-M   'P 1'
_cell_length_a   7.64799976
_cell_length_b   4.66800022
_cell_length_c   2.48099995
_cell_angle_alpha   90.00000000
_cell_angle_beta   90.00000000
_cell_angle_gamma   90.00000000
_symmetry_Int_Tables_number   1
_chemical_formula_structural   H5(SN)2
_chemical_formula_sum   'H20 S8 N8'
_cell_volume   88.57384314
_cell_formula_units_Z   4
loop_
 _symmetry_equiv_pos_site_id
 _symmetry_equiv_pos_as_xyz
  1  'x, y, z'
loop_
 _atom_site_type_symbol
 _atom_site_label
 _atom_site_symmetry_multiplicity
 _atom_site_fract_x
 _atom_site_fract_y
 _atom_site_fract_z
 _atom_site_occupancy
  H  H0  1  0.33899999  0.88399997  0.75599996  1
  H  H1  1  0.66100001  0.11599999  0.24400001  1
  H  H2  1  0.66100001  0.61599998  0.25600003  1
  H  H3  1  0.33899999  0.38400007  0.74400004  1
  H  H4  1  0.66100001  0.38400007  0.74400004  1
  H  H5  1  0.33899999  0.61599998  0.25600003  1
  H  H6  1  0.33899999  0.11599999  0.24400001  1
  H  H7  1  0.66100001  0.88399997  0.75599996  1
  H  H8  1  0.83899999  0.38400007  0.75599996  1
  H  H9  1  0.16100001  0.61599998  0.24400001  1
  H  H10  1  0.16100001  0.11599999  0.25600003  1
  H  H11  1  0.83899999  0.88399997  0.74400004  1
  H  H12  1  0.16100001  0.88399997  0.74400004  1
  H  H13  1  0.83899999  0.11599999  0.25600003  1
  H  H14  1  0.83899999  0.61599998  0.24400001  1
  H  H15  1  0.16100001  0.38400007  0.75599996  1
  H  H16  1  0.50000000  0.00000000  0.50000000  1
  H  H17  1  0.50000000  0.50000000  0.00000000  1
  H  H18  1  0.00000000  0.50000000  0.50000000  1
  H  H19  1  0.00000000  0.00000000  0.00000000  1
  N  N20  1  0.75000003  0.50000000  0.50000000  1
  N  N21  1  0.25000000  0.50000000  0.50000000  1
  N  N22  1  0.25000000  0.00000000  0.00000000  1
  N  N23  1  0.75000003  0.00000000  0.00000000  1
  N  N24  1  0.25000000  0.00000000  0.50000000  1
  N  N25  1  0.75000003  0.00000000  0.50000000  1
  N  N26  1  0.75000003  0.50000000  0.00000000  1
  N  N27  1  0.25000000  0.50000000  0.00000000  1
  S  S28  1  0.50000000  0.75000000  0.12900000  1
  S  S29  1  0.50000000  0.25000000  0.87099998  1
  S  S30  1  0.50000000  0.75000000  0.62900002  1
  S  S31  1  0.50000000  0.25000000  0.37100000  1
  S  S32  1  0.00000000  0.25000000  0.12900000  1
  S  S33  1  0.00000000  0.75000000  0.87099998  1
  S  S34  1  0.00000000  0.25000000  0.62900002  1
  S  S35  1  0.00000000  0.75000000  0.37100000  1
