# generated using pymatgen
data_H7S2N
_symmetry_space_group_name_H-M   'P 1'
_cell_length_a   2.34599996
_cell_length_b   4.33799982
_cell_length_c   6.04099989
_cell_angle_alpha   78.59999847
_cell_angle_beta   100.09999847
_cell_angle_gamma   91.19999695
_symmetry_Int_Tables_number   1
_chemical_formula_structural   H7S2N
_chemical_formula_sum   'H14 S4 N2'
_cell_volume   59.32610279
_cell_formula_units_Z   2
loop_
 _symmetry_equiv_pos_site_id
 _symmetry_equiv_pos_as_xyz
  1  'x, y, z'
loop_
 _atom_site_type_symbol
 _atom_site_label
 _atom_site_symmetry_multiplicity
 _atom_site_fract_x
 _atom_site_fract_y
 _atom_site_fract_z
 _atom_site_occupancy
  H  H0  1  0.67799999  0.87700000  0.89899999  1
  H  H1  1  0.32200001  0.12300004  0.10100001  1
  H  H2  1  0.77300000  0.61600001  0.13300000  1
  H  H3  1  0.22699998  0.38400000  0.86699993  1
  H  H4  1  0.57000000  0.66900009  0.33399998  1
  H  H5  1  0.43000001  0.33099996  0.66600000  1
  H  H6  1  0.77700001  0.14599998  0.89499998  1
  H  H7  1  0.22299998  0.85400001  0.10500002  1
  H  H8  1  0.15800000  0.62599999  0.92699996  1
  H  H9  1  0.84200003  0.37400004  0.07300001  1
  H  H10  1  0.38400002  0.83600008  0.50300000  1
  H  H11  1  0.61600001  0.16399997  0.49699997  1
  H  H12  1  0.02900002  0.37599998  0.49700001  1
  H  H13  1  0.97099998  0.62400001  0.50300000  1
  N  N14  1  0.45899998  0.74700002  0.01200000  1
  N  N15  1  0.54100002  0.25300000  0.98799991  1
  S  S16  1  0.27900002  0.39800000  0.31299999  1
  S  S17  1  0.72099996  0.60200004  0.68700001  1
  S  S18  1  0.97399996  0.95400002  0.31099998  1
  S  S19  1  0.02600004  0.04600000  0.68900002  1
