# generated using pymatgen
data_HSe
_symmetry_space_group_name_H-M   'P 1'
_cell_length_a   3.01400000
_cell_length_b   3.01400000
_cell_length_c   2.37300000
_cell_angle_alpha   90.00000000
_cell_angle_beta   90.00000000
_cell_angle_gamma   90.00000000
_symmetry_Int_Tables_number   1
_chemical_formula_structural   HSe
_chemical_formula_sum   'H2 Se2'
_cell_volume   21.55679711
_cell_formula_units_Z   2
loop_
 _symmetry_equiv_pos_site_id
 _symmetry_equiv_pos_as_xyz
  1  'x, y, z'
loop_
 _atom_site_type_symbol
 _atom_site_label
 _atom_site_symmetry_multiplicity
 _atom_site_fract_x
 _atom_site_fract_y
 _atom_site_fract_z
 _atom_site_occupancy
  Se  Se0  1  0.50000000  0.00000000  0.81700000  1
  Se  Se1  1  0.00000000  0.50000000  0.18300000  1
  H  H2  1  0.50000000  0.50000000  0.50000000  1
  H  H3  1  0.00000000  0.00000000  0.50000000  1
