# generated using pymatgen
data_LaH6S
_symmetry_space_group_name_H-M   'P 1'
_cell_length_a   2.89599991
_cell_length_b   7.02699995
_cell_length_c   6.42000008
_cell_angle_alpha   90.00000000
_cell_angle_beta   90.00000000
_cell_angle_gamma   90.00000000
_symmetry_Int_Tables_number   1
_chemical_formula_structural   LaH6S
_chemical_formula_sum   'La4 H24 S4'
_cell_volume   130.64822914
_cell_formula_units_Z   4
loop_
 _symmetry_equiv_pos_site_id
 _symmetry_equiv_pos_as_xyz
  1  'x, y, z'
loop_
 _atom_site_type_symbol
 _atom_site_label
 _atom_site_symmetry_multiplicity
 _atom_site_fract_x
 _atom_site_fract_y
 _atom_site_fract_z
 _atom_site_occupancy
  H  H0  1  0.00000000  0.57900000  0.75000000  1
  H  H1  1  0.00000000  0.42100000  0.25000000  1
  H  H2  1  0.50000000  0.07900000  0.75000000  1
  H  H3  1  0.50000000  0.92100000  0.25000000  1
  H  H4  1  0.00000000  0.00400000  0.25000000  1
  H  H5  1  0.00000000  0.99599999  0.75000000  1
  H  H6  1  0.50000000  0.50400001  0.25000000  1
  H  H7  1  0.50000000  0.49599999  0.75000000  1
  H  H8  1  0.00000000  0.37000001  0.08399999  1
  H  H9  1  0.00000000  0.63000000  0.91600001  1
  H  H10  1  0.00000000  0.63000000  0.58399999  1
  H  H11  1  0.00000000  0.37000001  0.41600001  1
  H  H12  1  0.50000000  0.87000000  0.08399999  1
  H  H13  1  0.50000000  0.13000000  0.91600001  1
  H  H14  1  0.50000000  0.13000000  0.58399999  1
  H  H15  1  0.50000000  0.87000000  0.41600001  1
  H  H16  1  0.00000000  0.25299999  0.45200002  1
  H  H17  1  0.00000000  0.74699998  0.54799998  1
  H  H18  1  0.00000000  0.74699998  0.95200002  1
  H  H19  1  0.00000000  0.25299999  0.04799998  1
  H  H20  1  0.50000000  0.75300002  0.45200002  1
  H  H21  1  0.50000000  0.24700001  0.54799998  1
  H  H22  1  0.50000000  0.24700001  0.95200002  1
  H  H23  1  0.50000000  0.75300002  0.04799998  1
  S  S24  1  0.50000000  0.50000000  0.00000000  1
  S  S25  1  0.50000000  0.50000000  0.50000000  1
  S  S26  1  0.00000000  0.00000000  0.00000000  1
  S  S27  1  0.00000000  0.00000000  0.50000000  1
  La  La28  1  0.00000000  0.29600000  0.75000000  1
  La  La29  1  0.00000000  0.70400000  0.25000000  1
  La  La30  1  0.50000000  0.79600000  0.75000000  1
  La  La31  1  0.50000000  0.20400000  0.25000000  1
