# generated using pymatgen
data_H2I
_symmetry_space_group_name_H-M   'P 1'
_cell_length_a   3.05600000
_cell_length_b   3.05600000
_cell_length_c   5.89700000
_cell_angle_alpha   90.00000000
_cell_angle_beta   90.00000000
_cell_angle_gamma   120.00000000
_symmetry_Int_Tables_number   1
_chemical_formula_structural   H2I
_chemical_formula_sum   'H6 I3'
_cell_volume   47.69451746
_cell_formula_units_Z   3
loop_
 _symmetry_equiv_pos_site_id
 _symmetry_equiv_pos_as_xyz
  1  'x, y, z'
loop_
 _atom_site_type_symbol
 _atom_site_label
 _atom_site_symmetry_multiplicity
 _atom_site_fract_x
 _atom_site_fract_y
 _atom_site_fract_z
 _atom_site_occupancy
  H  H0  1  0.00000000  0.00000000  0.40676000  1
  H  H1  1  0.00000000  0.00000000  0.59324000  1
  H  H2  1  0.66666667  0.33333333  0.74009333  1
  H  H3  1  0.66666667  0.33333333  0.92657333  1
  H  H4  1  0.33333333  0.66666667  0.07342667  1
  H  H5  1  0.33333333  0.66666667  0.25990667  1
  I  I6  1  0.00000000  0.00000000  0.00000000  1
  I  I7  1  0.66666667  0.33333333  0.33333333  1
  I  I8  1  0.33333333  0.66666667  0.66666667  1
