# generated using pymatgen
data_MgVH6
_symmetry_space_group_name_H-M   'P 1'
_cell_length_a   3.81080008
_cell_length_b   3.75819993
_cell_length_c   3.84330010
_cell_angle_alpha   90.00000000
_cell_angle_beta   90.00000000
_cell_angle_gamma   90.00000000
_symmetry_Int_Tables_number   1
_chemical_formula_structural   MgVH6
_chemical_formula_sum   'Mg2 V2 H12'
_cell_volume   55.04277780
_cell_formula_units_Z   2
loop_
 _symmetry_equiv_pos_site_id
 _symmetry_equiv_pos_as_xyz
  1  'x, y, z'
loop_
 _atom_site_type_symbol
 _atom_site_label
 _atom_site_symmetry_multiplicity
 _atom_site_fract_x
 _atom_site_fract_y
 _atom_site_fract_z
 _atom_site_occupancy
  Mg  Mg0  1  0.50000000  0.99944002  0.72067998  1
  Mg  Mg1  1  0.00000000  0.00055999  0.22068000  1
  V  V2  1  0.50000000  0.52663000  0.18209999  1
  V  V3  1  0.00000000  0.47337000  0.68210001  1
  H  H4  1  0.28182007  0.26344000  0.45000000  1
  H  H5  1  0.21817994  0.73655996  0.94999997  1
  H  H6  1  0.78182004  0.73655996  0.94999997  1
  H  H7  1  0.71817996  0.26344000  0.45000000  1
  H  H8  1  0.24214995  0.26510999  0.97055999  1
  H  H9  1  0.25785005  0.73488998  0.47056009  1
  H  H10  1  0.74214995  0.73488998  0.47056009  1
  H  H11  1  0.75785005  0.26510999  0.97055999  1
  H  H12  1  0.50000000  0.96697000  0.20506001  1
  H  H13  1  0.00000000  0.03302997  0.70505998  1
  H  H14  1  0.50000000  0.50245000  0.75978000  1
  H  H15  1  0.00000000  0.49755000  0.25977993  1
