# generated using pymatgen
data_TbH3
_symmetry_space_group_name_H-M   'P 1'
_cell_length_a   2.52800012
_cell_length_b   9.93000031
_cell_length_c   2.44300008
_cell_angle_alpha   90.00000000
_cell_angle_beta   90.00000000
_cell_angle_gamma   90.00000000
_symmetry_Int_Tables_number   1
_chemical_formula_structural   TbH3
_chemical_formula_sum   'Tb4 H12'
_cell_volume   61.32673339
_cell_formula_units_Z   4
loop_
 _symmetry_equiv_pos_site_id
 _symmetry_equiv_pos_as_xyz
  1  'x, y, z'
loop_
 _atom_site_type_symbol
 _atom_site_label
 _atom_site_symmetry_multiplicity
 _atom_site_fract_x
 _atom_site_fract_y
 _atom_site_fract_z
 _atom_site_occupancy
  Tb  Tb0  1  0.00000000  0.88225004  0.25000000  1
  Tb  Tb1  1  0.00000000  0.11774999  0.75000002  1
  Tb  Tb2  1  0.50000000  0.38225006  0.25000000  1
  Tb  Tb3  1  0.50000000  0.61775001  0.75000002  1
  H  H4  1  0.00000000  0.69089001  0.25000000  1
  H  H5  1  0.00000000  0.30910999  0.75000002  1
  H  H6  1  0.50000000  0.19089007  0.25000000  1
  H  H7  1  0.50000000  0.80910994  0.75000002  1
  H  H8  1  0.00000000  0.52917000  0.25000000  1
  H  H9  1  0.00000000  0.47083000  0.75000002  1
  H  H10  1  0.50000000  0.02917004  0.25000000  1
  H  H11  1  0.50000000  0.97083005  0.75000002  1
  H  H12  1  0.00000000  0.25505001  0.25000000  1
  H  H13  1  0.00000000  0.74494999  0.75000002  1
  H  H14  1  0.50000000  0.75505001  0.25000000  1
  H  H15  1  0.50000000  0.24494999  0.75000002  1
