# generated using pymatgen
data_HCl
_symmetry_space_group_name_H-M   'P 1'
_cell_length_a   3.92300010
_cell_length_b   2.76300001
_cell_length_c   6.09800005
_cell_angle_alpha   90.00000000
_cell_angle_beta   90.00000000
_cell_angle_gamma   90.00000000
_symmetry_Int_Tables_number   1
_chemical_formula_structural   HCl
_chemical_formula_sum   'H4 Cl4'
_cell_volume   66.09774285
_cell_formula_units_Z   4
loop_
 _symmetry_equiv_pos_site_id
 _symmetry_equiv_pos_as_xyz
  1  'x, y, z'
loop_
 _atom_site_type_symbol
 _atom_site_label
 _atom_site_symmetry_multiplicity
 _atom_site_fract_x
 _atom_site_fract_y
 _atom_site_fract_z
 _atom_site_occupancy
  Cl  Cl0  1  0.53280002  0.00000000  0.22990000  1
  Cl  Cl1  1  0.46719998  0.00000000  0.77010000  1
  Cl  Cl2  1  0.03280002  0.50000000  0.22990000  1
  Cl  Cl3  1  0.96719998  0.50000000  0.77010000  1
  H  H4  1  0.79049998  0.00000000  0.62580001  1
  H  H5  1  0.20950002  0.00000000  0.37419999  1
  H  H6  1  0.29049999  0.50000000  0.62580001  1
  H  H7  1  0.70950001  0.50000000  0.37419999  1
