# generated using pymatgen
data_H4I
_symmetry_space_group_name_H-M   'P 1'
_cell_length_a   2.99600000
_cell_length_b   2.99600000
_cell_length_c   2.66900000
_cell_angle_alpha   90.00000000
_cell_angle_beta   90.00000000
_cell_angle_gamma   120.00000000
_symmetry_Int_Tables_number   1
_chemical_formula_structural   H4I
_chemical_formula_sum   'H4 I1'
_cell_volume   20.74735908
_cell_formula_units_Z   1
loop_
 _symmetry_equiv_pos_site_id
 _symmetry_equiv_pos_as_xyz
  1  'x, y, z'
loop_
 _atom_site_type_symbol
 _atom_site_label
 _atom_site_symmetry_multiplicity
 _atom_site_fract_x
 _atom_site_fract_y
 _atom_site_fract_z
 _atom_site_occupancy
  H  H0  1  0.33333300  0.66666700  0.34832000  1
  H  H1  1  0.66666700  0.33333300  0.65168000  1
  H  H2  1  0.66666700  0.33333300  0.34832000  1
  H  H3  1  0.33333300  0.66666700  0.65168000  1
  I  I4  1  0.00000000  0.00000000  0.00000000  1
