# generated using pymatgen
data_Ba(H4C)2
_symmetry_space_group_name_H-M   'P 1'
_cell_length_a   4.62306172
_cell_length_b   4.62306172
_cell_length_c   7.77370765
_cell_angle_alpha   76.26220674
_cell_angle_beta   76.26220674
_cell_angle_gamma   44.21794190
_symmetry_Int_Tables_number   1
_chemical_formula_structural   Ba(H4C)2
_chemical_formula_sum   'Ba2 H16 C4'
_cell_volume   111.99674962
_cell_formula_units_Z   2
loop_
 _symmetry_equiv_pos_site_id
 _symmetry_equiv_pos_as_xyz
  1  'x, y, z'
loop_
 _atom_site_type_symbol
 _atom_site_label
 _atom_site_symmetry_multiplicity
 _atom_site_fract_x
 _atom_site_fract_y
 _atom_site_fract_z
 _atom_site_occupancy
  C  C0  1  0.29638029  0.29638029  0.04420655  1
  C  C1  1  0.96138549  0.96138549  0.71783801  1
  C  C2  1  0.30470775  0.30470775  0.52552029  1
  C  C3  1  0.62749754  0.62749754  0.38747136  1
  H  H4  1  0.26570450  0.26570450  0.19281170  1
  H  H5  1  0.62547685  0.10190850  0.98918561  1
  H  H6  1  0.10190850  0.62547685  0.98918561  1
  H  H7  1  0.18069412  0.18069412  0.00478615  1
  H  H8  1  0.05986892  0.05986892  0.60103105  1
  H  H9  1  0.62281155  0.17441021  0.72672761  1
  H  H10  1  0.98758819  0.98758819  0.85739618  1
  H  H11  1  0.17441021  0.62281155  0.72672761  1
  H  H12  1  0.11232700  0.63478782  0.52156182  1
  H  H13  1  0.22506428  0.22506428  0.65858144  1
  H  H14  1  0.63478782  0.11232700  0.52156182  1
  H  H15  1  0.24447699  0.24447699  0.41982384  1
  H  H16  1  0.65827790  0.65827790  0.23713824  1
  H  H17  1  0.30555219  0.81319083  0.44094393  1
  H  H18  1  0.72003998  0.72003998  0.45782263  1
  H  H19  1  0.81319083  0.30555219  0.44094393  1
  Ba  Ba20  1  0.95692898  0.95692898  0.22367283  1
  Ba  Ba21  1  0.64093013  0.64093013  0.84924177  1
