# generated using pymatgen
data_LiBH2
_symmetry_space_group_name_H-M   'P 1'
_cell_length_a   3.07600000
_cell_length_b   6.25100000
_cell_length_c   2.72900000
_cell_angle_alpha   90.00000000
_cell_angle_beta   90.00000000
_cell_angle_gamma   90.00000000
_symmetry_Int_Tables_number   1
_chemical_formula_structural   LiBH2
_chemical_formula_sum   'Li4 B4 H8'
_cell_volume   52.47341940
_cell_formula_units_Z   4
loop_
 _symmetry_equiv_pos_site_id
 _symmetry_equiv_pos_as_xyz
  1  'x, y, z'
loop_
 _atom_site_type_symbol
 _atom_site_label
 _atom_site_symmetry_multiplicity
 _atom_site_fract_x
 _atom_site_fract_y
 _atom_site_fract_z
 _atom_site_occupancy
  Li  Li0  1  0.00000000  0.38200000  0.25000000  1
  Li  Li1  1  0.00000000  0.61800000  0.75000000  1
  Li  Li2  1  0.50000000  0.88200000  0.25000000  1
  Li  Li3  1  0.50000000  0.11800000  0.75000000  1
  B  B4  1  0.00000000  0.06500000  0.25000000  1
  B  B5  1  0.00000000  0.93500000  0.75000000  1
  B  B6  1  0.50000000  0.56500000  0.25000000  1
  B  B7  1  0.50000000  0.43500000  0.75000000  1
  H  H8  1  0.28500000  0.17900000  0.25000000  1
  H  H9  1  0.71500000  0.82100000  0.75000000  1
  H  H10  1  0.71500000  0.17900000  0.25000000  1
  H  H11  1  0.28500000  0.82100000  0.75000000  1
  H  H12  1  0.78500000  0.67900000  0.25000000  1
  H  H13  1  0.21500000  0.32100000  0.75000000  1
  H  H14  1  0.21500000  0.67900000  0.25000000  1
  H  H15  1  0.78500000  0.32100000  0.75000000  1
