# generated using pymatgen
data_TbH2
_symmetry_space_group_name_H-M   'P 1'
_cell_length_a   2.77200007
_cell_length_b   2.77200007
_cell_length_c   2.56299996
_cell_angle_alpha   90.00000000
_cell_angle_beta   90.00000000
_cell_angle_gamma   120.00000000
_symmetry_Int_Tables_number   1
_chemical_formula_structural   TbH2
_chemical_formula_sum   'Tb1 H2'
_cell_volume   17.05554914
_cell_formula_units_Z   1
loop_
 _symmetry_equiv_pos_site_id
 _symmetry_equiv_pos_as_xyz
  1  'x, y, z'
loop_
 _atom_site_type_symbol
 _atom_site_label
 _atom_site_symmetry_multiplicity
 _atom_site_fract_x
 _atom_site_fract_y
 _atom_site_fract_z
 _atom_site_occupancy
  Tb  Tb0  1  0.00000000  0.00000000  0.00000000  1
  H  H1  1  0.66666667  0.33333333  0.50000000  1
  H  H2  1  0.33333331  0.66666662  0.50000000  1
