# generated using pymatgen
data_H8SN2
_symmetry_space_group_name_H-M   'P 1'
_cell_length_a   4.06799984
_cell_length_b   6.96899986
_cell_length_c   5.09899998
_cell_angle_alpha   90.00000000
_cell_angle_beta   90.00000000
_cell_angle_gamma   90.00000000
_symmetry_Int_Tables_number   1
_chemical_formula_structural   H8SN2
_chemical_formula_sum   'H32 S4 N8'
_cell_volume   144.55609012
_cell_formula_units_Z   4
loop_
 _symmetry_equiv_pos_site_id
 _symmetry_equiv_pos_as_xyz
  1  'x, y, z'
loop_
 _atom_site_type_symbol
 _atom_site_label
 _atom_site_symmetry_multiplicity
 _atom_site_fract_x
 _atom_site_fract_y
 _atom_site_fract_z
 _atom_site_occupancy
  H  H0  1  0.49099999  0.69700005  0.37799999  1
  H  H1  1  0.50900001  0.30299998  0.37799999  1
  H  H2  1  0.49099999  0.30299998  0.87800001  1
  H  H3  1  0.50900001  0.69700005  0.87800001  1
  H  H4  1  0.99099999  0.19700003  0.37799999  1
  H  H5  1  0.00900000  0.80299995  0.37799999  1
  H  H6  1  0.99099999  0.80299995  0.87800001  1
  H  H7  1  0.00900000  0.19700003  0.87800001  1
  H  H8  1  0.38699999  0.10600000  0.72899999  1
  H  H9  1  0.61300004  0.89399997  0.72899999  1
  H  H10  1  0.38699999  0.89399997  0.22899997  1
  H  H11  1  0.61300004  0.10600000  0.22899997  1
  H  H12  1  0.88699996  0.60600003  0.72899999  1
  H  H13  1  0.11300001  0.39400000  0.72899999  1
  H  H14  1  0.88699996  0.39400000  0.22899997  1
  H  H15  1  0.11300001  0.60600003  0.22899997  1
  H  H16  1  0.64600003  0.91399996  0.42099999  1
  H  H17  1  0.35399997  0.08600003  0.42099999  1
  H  H18  1  0.64600003  0.08600003  0.92099999  1
  H  H19  1  0.35399997  0.91399996  0.92099999  1
  H  H20  1  0.14600003  0.41400003  0.42099999  1
  H  H21  1  0.85399997  0.58600004  0.42099999  1
  H  H22  1  0.14600003  0.58600004  0.92099999  1
  H  H23  1  0.85399997  0.41400003  0.92099999  1
  H  H24  1  0.33700001  0.84700000  0.62999999  1
  H  H25  1  0.66300001  0.15300000  0.62999999  1
  H  H26  1  0.33700001  0.15300000  0.13000000  1
  H  H27  1  0.66300001  0.84700000  0.13000000  1
  H  H28  1  0.83699999  0.34700000  0.62999999  1
  H  H29  1  0.16299998  0.65300000  0.62999999  1
  H  H30  1  0.83699999  0.65300000  0.13000000  1
  H  H31  1  0.16299998  0.34700000  0.13000000  1
  N  N32  1  0.50900001  0.83299998  0.28900000  1
  N  N33  1  0.49099999  0.16699999  0.28900000  1
  N  N34  1  0.50900001  0.16699999  0.78900007  1
  N  N35  1  0.49099999  0.83299998  0.78900007  1
  N  N36  1  0.00900006  0.33299994  0.28900000  1
  N  N37  1  0.99099999  0.66700002  0.28900000  1
  N  N38  1  0.00900006  0.66700002  0.78900007  1
  N  N39  1  0.99099999  0.33299994  0.78900007  1
  S  S40  1  0.00000000  0.00000000  0.55000001  1
  S  S41  1  0.00000000  0.00000000  0.04999995  1
  S  S42  1  0.50000000  0.50000000  0.55000001  1
  S  S43  1  0.50000000  0.50000000  0.04999995  1
