# generated using pymatgen
data_Zr4H15
_symmetry_space_group_name_H-M   'P 1'
_cell_length_a   7.91200000
_cell_length_b   7.91200000
_cell_length_c   7.91200000
_cell_angle_alpha   90.00000000
_cell_angle_beta   90.00000000
_cell_angle_gamma   90.00000000
_symmetry_Int_Tables_number   1
_chemical_formula_structural   Zr4H15
_chemical_formula_sum   'Zr16 H60'
_cell_volume   495.28917453
_cell_formula_units_Z   4
loop_
 _symmetry_equiv_pos_site_id
 _symmetry_equiv_pos_as_xyz
  1  'x, y, z'
loop_
 _atom_site_type_symbol
 _atom_site_label
 _atom_site_symmetry_multiplicity
 _atom_site_fract_x
 _atom_site_fract_y
 _atom_site_fract_z
 _atom_site_occupancy
  H  H0  1  0.84400000  0.53600000  0.11500000  1
  H  H1  1  0.65600000  0.46400000  0.61500000  1
  H  H2  1  0.15600000  0.03600000  0.38500000  1
  H  H3  1  0.34400000  0.96400000  0.88500000  1
  H  H4  1  0.11500000  0.84400000  0.53600000  1
  H  H5  1  0.61500000  0.65600000  0.46400000  1
  H  H6  1  0.38500000  0.15600000  0.03600000  1
  H  H7  1  0.88500000  0.34400000  0.96400000  1
  H  H8  1  0.53600000  0.11500000  0.84400000  1
  H  H9  1  0.46400000  0.61500000  0.65600000  1
  H  H10  1  0.03600000  0.38500000  0.15600000  1
  H  H11  1  0.96400000  0.88500000  0.34400000  1
  H  H12  1  0.78600000  0.09400000  0.36500000  1
  H  H13  1  0.71400000  0.90600000  0.86500000  1
  H  H14  1  0.28600000  0.40600000  0.63500000  1
  H  H15  1  0.21400000  0.59400000  0.13500000  1
  H  H16  1  0.09400000  0.36500000  0.78600000  1
  H  H17  1  0.90600000  0.86500000  0.71400000  1
  H  H18  1  0.40600000  0.63500000  0.28600000  1
  H  H19  1  0.59400000  0.13500000  0.21400000  1
  H  H20  1  0.36500000  0.78600000  0.09400000  1
  H  H21  1  0.86500000  0.71400000  0.90600000  1
  H  H22  1  0.63500000  0.28600000  0.40600000  1
  H  H23  1  0.13500000  0.21400000  0.59400000  1
  H  H24  1  0.34400000  0.03600000  0.61500000  1
  H  H25  1  0.15600000  0.96400000  0.11500000  1
  H  H26  1  0.65600000  0.53600000  0.88500000  1
  H  H27  1  0.84400000  0.46400000  0.38500000  1
  H  H28  1  0.61500000  0.34400000  0.03600000  1
  H  H29  1  0.11500000  0.15600000  0.96400000  1
  H  H30  1  0.88500000  0.65600000  0.53600000  1
  H  H31  1  0.38500000  0.84400000  0.46400000  1
  H  H32  1  0.03600000  0.61500000  0.34400000  1
  H  H33  1  0.96400000  0.11500000  0.15600000  1
  H  H34  1  0.53600000  0.88500000  0.65600000  1
  H  H35  1  0.46400000  0.38500000  0.84400000  1
  H  H36  1  0.28600000  0.59400000  0.86500000  1
  H  H37  1  0.21400000  0.40600000  0.36500000  1
  H  H38  1  0.78600000  0.90600000  0.13500000  1
  H  H39  1  0.71400000  0.09400000  0.63500000  1
  H  H40  1  0.59400000  0.86500000  0.28600000  1
  H  H41  1  0.40600000  0.36500000  0.21400000  1
  H  H42  1  0.90600000  0.13500000  0.78600000  1
  H  H43  1  0.09400000  0.63500000  0.71400000  1
  H  H44  1  0.86500000  0.28600000  0.59400000  1
  H  H45  1  0.36500000  0.21400000  0.40600000  1
  H  H46  1  0.13500000  0.78600000  0.90600000  1
  H  H47  1  0.63500000  0.71400000  0.09400000  1
  H  H48  1  0.50000000  0.25000000  0.62500000  1
  H  H49  1  0.00000000  0.75000000  0.12500000  1
  H  H50  1  0.50000000  0.75000000  0.87500000  1
  H  H51  1  0.00000000  0.25000000  0.37500000  1
  H  H52  1  0.62500000  0.50000000  0.25000000  1
  H  H53  1  0.12500000  0.00000000  0.75000000  1
  H  H54  1  0.87500000  0.50000000  0.75000000  1
  H  H55  1  0.37500000  0.00000000  0.25000000  1
  H  H56  1  0.25000000  0.62500000  0.50000000  1
  H  H57  1  0.75000000  0.12500000  0.00000000  1
  H  H58  1  0.75000000  0.87500000  0.50000000  1
  H  H59  1  0.25000000  0.37500000  0.00000000  1
  Zr  Zr60  1  0.04500000  0.45500000  0.54500000  1
  Zr  Zr61  1  0.45500000  0.54500000  0.04500000  1
  Zr  Zr62  1  0.95500000  0.95500000  0.95500000  1
  Zr  Zr63  1  0.54500000  0.04500000  0.45500000  1
  Zr  Zr64  1  0.70500000  0.29500000  0.79500000  1
  Zr  Zr65  1  0.79500000  0.70500000  0.29500000  1
  Zr  Zr66  1  0.20500000  0.20500000  0.20500000  1
  Zr  Zr67  1  0.29500000  0.79500000  0.70500000  1
  Zr  Zr68  1  0.54500000  0.95500000  0.04500000  1
  Zr  Zr69  1  0.95500000  0.04500000  0.54500000  1
  Zr  Zr70  1  0.45500000  0.45500000  0.45500000  1
  Zr  Zr71  1  0.04500000  0.54500000  0.95500000  1
  Zr  Zr72  1  0.20500000  0.79500000  0.29500000  1
  Zr  Zr73  1  0.29500000  0.20500000  0.79500000  1
  Zr  Zr74  1  0.70500000  0.70500000  0.70500000  1
  Zr  Zr75  1  0.79500000  0.29500000  0.20500000  1
