# generated using pymatgen
data_Ba(PrSe2)2
_symmetry_space_group_name_H-M   'P 1'
_cell_length_a   8.02095929
_cell_length_b   8.02095987
_cell_length_c   8.02095962
_cell_angle_alpha   109.39876170
_cell_angle_beta   109.39875358
_cell_angle_gamma   109.61624125
_symmetry_Int_Tables_number   1
_chemical_formula_structural   Ba(PrSe2)2
_chemical_formula_sum   'Ba2 Pr4 Se8'
_cell_volume   397.24187452
_cell_formula_units_Z   2
loop_
 _symmetry_equiv_pos_site_id
 _symmetry_equiv_pos_as_xyz
  1  'x, y, z'
loop_
 _atom_site_type_symbol
 _atom_site_label
 _atom_site_symmetry_multiplicity
 _atom_site_fract_x
 _atom_site_fract_y
 _atom_site_fract_z
 _atom_site_occupancy
  Ba  Ba0  1  0.62500000  0.37500000  0.25000000  1
  Ba  Ba1  1  0.87500000  0.12500000  0.75000000  1
  Pr  Pr2  1  0.12568287  0.75000000  0.87568287  1
  Pr  Pr3  1  0.25000000  0.62568287  0.37568287  1
  Pr  Pr4  1  0.37431713  0.25000000  0.62431713  1
  Pr  Pr5  1  0.75000000  0.87431713  0.12431713  1
  Se  Se6  1  0.48416123  0.98026318  0.84016812  1
  Se  Se7  1  0.14399311  0.14009506  0.15983188  1
  Se  Se8  1  0.35600689  0.51583877  0.99610195  1
  Se  Se9  1  0.64009506  0.64399311  0.65983188  1
  Se  Se10  1  0.48026318  0.98416123  0.34016812  1
  Se  Se11  1  0.01583877  0.85600689  0.49610195  1
  Se  Se12  1  0.85990494  0.51973682  0.00389805  1
  Se  Se13  1  0.01973682  0.35990494  0.50389805  1
