# generated using pymatgen
data_Li2NbCr3O8
_symmetry_space_group_name_H-M   'P 1'
_cell_length_a   8.53029556
_cell_length_b   8.53029759
_cell_length_c   8.53039695
_cell_angle_alpha   89.99996225
_cell_angle_beta   89.99994385
_cell_angle_gamma   90.00003432
_symmetry_Int_Tables_number   1
_chemical_formula_structural   Li2NbCr3O8
_chemical_formula_sum   'Li8 Nb4 Cr12 O32'
_cell_volume   620.72252033
_cell_formula_units_Z   4
loop_
 _symmetry_equiv_pos_site_id
 _symmetry_equiv_pos_as_xyz
  1  'x, y, z'
loop_
 _atom_site_type_symbol
 _atom_site_label
 _atom_site_symmetry_multiplicity
 _atom_site_fract_x
 _atom_site_fract_y
 _atom_site_fract_z
 _atom_site_occupancy
  Li  Li0  1  0.99555133  0.99556015  0.99555465  1
  Li  Li1  1  0.25443853  0.25443512  0.25443740  1
  Li  Li2  1  0.24556577  0.74556807  0.75443431  1
  Li  Li3  1  0.50444789  0.00444416  0.49555496  1
  Li  Li4  1  0.49555852  0.50444543  0.00444858  1
  Li  Li5  1  0.75444354  0.24556910  0.74556885  1
  Li  Li6  1  0.74556196  0.75443665  0.24556398  1
  Li  Li7  1  0.00445171  0.49555660  0.50444908  1
  Nb  Nb8  1  0.12492016  0.87507862  0.37504712  1
  Nb  Nb9  1  0.37507578  0.12493058  0.87504896  1
  Nb  Nb10  1  0.62492424  0.62492262  0.62495129  1
  Nb  Nb11  1  0.87507650  0.37507507  0.12496357  1
  Cr  Cr12  1  0.12144691  0.12866985  0.62506611  1
  Cr  Cr13  1  0.12504549  0.37856207  0.87131474  1
  Cr  Cr14  1  0.12868012  0.62506382  0.12142942  1
  Cr  Cr15  1  0.37132076  0.37494365  0.62145572  1
  Cr  Cr16  1  0.37493016  0.62147273  0.37131202  1
  Cr  Cr17  1  0.37855549  0.87132431  0.12505812  1
  Cr  Cr18  1  0.62141581  0.37129835  0.37495118  1
  Cr  Cr19  1  0.62504514  0.12144713  0.12869360  1
  Cr  Cr20  1  0.62868349  0.87494234  0.87856045  1
  Cr  Cr21  1  0.87131092  0.12506653  0.37857993  1
  Cr  Cr22  1  0.87492725  0.87856319  0.62868411  1
  Cr  Cr23  1  0.87856994  0.62869603  0.87493618  1
  O  O24  1  0.11359499  0.11179588  0.38574539  1
  O  O25  1  0.11426795  0.88640820  0.61177487  1
  O  O26  1  0.11130425  0.61130528  0.88870887  1
  O  O27  1  0.13821429  0.13641264  0.86428222  1
  O  O28  1  0.11180188  0.38573434  0.11358107  1
  O  O29  1  0.13872048  0.36128059  0.63869561  1
  O  O30  1  0.13572009  0.63821691  0.36359876  1
  O  O31  1  0.13641132  0.86428666  0.13818941  1
  O  O32  1  0.36359435  0.13571496  0.63819339  1
  O  O33  1  0.36428291  0.36178845  0.86360200  1
  O  O34  1  0.36128444  0.63871796  0.13869324  1
  O  O35  1  0.38820310  0.61426980  0.61358250  1
  O  O36  1  0.36179132  0.86358964  0.36428017  1
  O  O37  1  0.38870111  0.38870023  0.38871546  1
  O  O38  1  0.38572723  0.11358948  0.11177990  1
  O  O39  1  0.38640994  0.88820583  0.88574394  1
  O  O40  1  0.61359415  0.38820465  0.61426665  1
  O  O41  1  0.61427016  0.61358769  0.38823054  1
  O  O42  1  0.61129699  0.88870498  0.11129097  1
  O  O43  1  0.63821408  0.36359121  0.13572922  1
  O  O44  1  0.61179747  0.11427540  0.88642356  1
  O  O45  1  0.63871734  0.13870997  0.36131418  1
  O  O46  1  0.63571519  0.86179144  0.63640083  1
  O  O47  1  0.63641602  0.63572223  0.86181306  1
  O  O48  1  0.86359461  0.36428228  0.36181529  1
  O  O49  1  0.86427929  0.13821709  0.13640580  1
  O  O50  1  0.86128374  0.86129359  0.86130150  1
  O  O51  1  0.88820353  0.88573230  0.38641528  1
  O  O52  1  0.86179136  0.63641749  0.63571982  1
  O  O53  1  0.88870451  0.11130217  0.61129303  1
  O  O54  1  0.88573395  0.38641619  0.88822726  1
  O  O55  1  0.88641152  0.61180231  0.11425887  1
