# generated using pymatgen
data_LiFe5O8
_symmetry_space_group_name_H-M   'P 1'
_cell_length_a   5.97781800
_cell_length_b   6.02385716
_cell_length_c   6.02385726
_cell_angle_alpha   59.99999783
_cell_angle_beta   59.74490439
_cell_angle_gamma   59.74490392
_symmetry_Int_Tables_number   1
_chemical_formula_structural   LiFe5O8
_chemical_formula_sum   'Li1 Fe5 O8'
_cell_volume   152.78885416
_cell_formula_units_Z   1
loop_
 _symmetry_equiv_pos_site_id
 _symmetry_equiv_pos_as_xyz
  1  'x, y, z'
loop_
 _atom_site_type_symbol
 _atom_site_label
 _atom_site_symmetry_multiplicity
 _atom_site_fract_x
 _atom_site_fract_y
 _atom_site_fract_z
 _atom_site_occupancy
  Fe  Fe0  1  0.98451891  0.00516036  0.00516036  1
  Fe  Fe1  1  0.26548109  0.24483964  0.24483964  1
  Fe  Fe2  1  0.62500000  0.12500000  0.62500000  1
  Fe  Fe3  1  0.62500000  0.62500000  0.12500000  1
  Fe  Fe4  1  0.62500000  0.62500000  0.62500000  1
  Li  Li5  1  0.12500000  0.62500000  0.62500000  1
  O  O6  1  0.39337147  0.37620382  0.37620382  1
  O  O7  1  0.39337147  0.85422090  0.37620382  1
  O  O8  1  0.39337147  0.37620382  0.85422090  1
  O  O9  1  0.85674530  0.38108490  0.38108490  1
  O  O10  1  0.39325470  0.86891510  0.86891510  1
  O  O11  1  0.85662853  0.39577910  0.87379618  1
  O  O12  1  0.85662853  0.87379618  0.39577910  1
  O  O13  1  0.85662853  0.87379618  0.87379618  1
