# generated using pymatgen
data_MgZrN2
_symmetry_space_group_name_H-M   'P 1'
_cell_length_a   6.47005412
_cell_length_b   7.45881159
_cell_length_c   4.50527736
_cell_angle_alpha   90.00000000
_cell_angle_beta   90.00000000
_cell_angle_gamma   90.00000000
_symmetry_Int_Tables_number   1
_chemical_formula_structural   MgZrN2
_chemical_formula_sum   'Mg4 Zr4 N8'
_cell_volume   217.41979563
_cell_formula_units_Z   4
loop_
 _symmetry_equiv_pos_site_id
 _symmetry_equiv_pos_as_xyz
  1  'x, y, z'
loop_
 _atom_site_type_symbol
 _atom_site_label
 _atom_site_symmetry_multiplicity
 _atom_site_fract_x
 _atom_site_fract_y
 _atom_site_fract_z
 _atom_site_occupancy
  Mg  Mg0  1  0.57862813  0.88082764  0.94250000  1
  Mg  Mg1  1  0.42137187  0.11917236  0.44250000  1
  Mg  Mg2  1  0.92137187  0.38082764  0.44250000  1
  Mg  Mg3  1  0.07862813  0.61917236  0.94250000  1
  Zr  Zr4  1  0.58887654  0.36944015  0.94250000  1
  Zr  Zr5  1  0.41112346  0.63055985  0.44250000  1
  Zr  Zr6  1  0.91112346  0.86944015  0.44250000  1
  Zr  Zr7  1  0.08887654  0.13055985  0.94250000  1
  N  N8  1  0.58091524  0.38380046  0.44250000  1
  N  N9  1  0.41908476  0.61619954  0.94250000  1
  N  N10  1  0.91908476  0.88380046  0.94250000  1
  N  N11  1  0.08091524  0.11619954  0.44250000  1
  N  N12  1  0.58248626  0.87065255  0.44250000  1
  N  N13  1  0.41751374  0.12934745  0.94250000  1
  N  N14  1  0.91751374  0.37065255  0.94250000  1
  N  N15  1  0.08248626  0.62934745  0.44250000  1
