# generated using pymatgen
data_CeInNi
_symmetry_space_group_name_H-M   'P 1'
_cell_length_a   7.34040637
_cell_length_b   7.34040637
_cell_length_c   4.02621369
_cell_angle_alpha   90.00000000
_cell_angle_beta   90.00000000
_cell_angle_gamma   120.00000004
_symmetry_Int_Tables_number   1
_chemical_formula_structural   CeInNi
_chemical_formula_sum   'Ce3 In3 Ni3'
_cell_volume   187.87442297
_cell_formula_units_Z   3
loop_
 _symmetry_equiv_pos_site_id
 _symmetry_equiv_pos_as_xyz
  1  'x, y, z'
loop_
 _atom_site_type_symbol
 _atom_site_label
 _atom_site_symmetry_multiplicity
 _atom_site_fract_x
 _atom_site_fract_y
 _atom_site_fract_z
 _atom_site_occupancy
  Ni  Ni0  1  0.33333333  0.66666667  0.50000000  1
  Ni  Ni1  1  0.00000000  0.00000000  0.00000000  1
  Ni  Ni2  1  0.66666667  0.33333333  0.50000000  1
  In  In3  1  0.75208089  0.75208089  0.50000000  1
  In  In4  1  0.00000000  0.24791911  0.50000000  1
  In  In5  1  0.24791911  0.00000000  0.50000000  1
  Ce  Ce6  1  0.00000000  0.58445958  0.00000000  1
  Ce  Ce7  1  0.41554042  0.41554042  0.00000000  1
  Ce  Ce8  1  0.58445958  0.00000000  0.00000000  1
