# generated using pymatgen
data_K3V5O14
_symmetry_space_group_name_H-M   'P 1'
_cell_length_a   8.79881293
_cell_length_b   8.79881272
_cell_length_c   5.30495806
_cell_angle_alpha   90.00000000
_cell_angle_beta   90.00000000
_cell_angle_gamma   120.00000081
_symmetry_Int_Tables_number   1
_chemical_formula_structural   K3V5O14
_chemical_formula_sum   'K3 V5 O14'
_cell_volume   355.68106150
_cell_formula_units_Z   1
loop_
 _symmetry_equiv_pos_site_id
 _symmetry_equiv_pos_as_xyz
  1  'x, y, z'
loop_
 _atom_site_type_symbol
 _atom_site_label
 _atom_site_symmetry_multiplicity
 _atom_site_fract_x
 _atom_site_fract_y
 _atom_site_fract_z
 _atom_site_occupancy
  K  K0  1  0.60744874  0.00000000  0.00431799  1
  K  K1  1  1.00000000  0.60744874  0.00431799  1
  K  K2  1  0.39255126  0.39255126  0.00431799  1
  V  V3  1  0.33333300  0.66666700  0.47209528  1
  V  V4  1  0.66666700  0.33333300  0.47209528  1
  V  V5  1  0.22665573  0.00000000  0.47104208  1
  V  V6  1  1.00000000  0.22665573  0.47104208  1
  V  V7  1  0.77334427  0.77334427  0.47104208  1
  O  O8  1  0.33333300  0.66666700  0.78605928  1
  O  O9  1  0.66666700  0.33333300  0.78605928  1
  O  O10  1  0.23883388  0.00000000  0.77876354  1
  O  O11  1  1.00000000  0.23883388  0.77876354  1
  O  O12  1  0.76116612  0.76116612  0.77876354  1
  O  O13  1  0.83095713  0.00000000  0.39335778  1
  O  O14  1  0.00000000  0.83095713  0.39335778  1
  O  O15  1  0.16904287  0.16904287  0.39335778  1
  O  O16  1  0.46154852  0.16835552  0.35570862  1
  O  O17  1  0.83164448  0.29319300  0.35570862  1
  O  O18  1  0.70680700  0.53845148  0.35570862  1
  O  O19  1  0.16835552  0.46154852  0.35570862  1
  O  O20  1  0.29319300  0.83164448  0.35570862  1
  O  O21  1  0.53845148  0.70680700  0.35570862  1
