# generated using pymatgen
data_AlPO4
_symmetry_space_group_name_H-M   'P 1'
_cell_length_a   14.09720624
_cell_length_b   14.09720623
_cell_length_c   8.71598809
_cell_angle_alpha   90.00000000
_cell_angle_beta   90.00000000
_cell_angle_gamma   120.00000001
_symmetry_Int_Tables_number   1
_chemical_formula_structural   AlPO4
_chemical_formula_sum   'Al12 P12 O48'
_cell_volume   1500.07635838
_cell_formula_units_Z   12
loop_
 _symmetry_equiv_pos_site_id
 _symmetry_equiv_pos_as_xyz
  1  'x, y, z'
loop_
 _atom_site_type_symbol
 _atom_site_label
 _atom_site_symmetry_multiplicity
 _atom_site_fract_x
 _atom_site_fract_y
 _atom_site_fract_z
 _atom_site_occupancy
  O  O0  1  0.43132547  0.84377150  0.50009263  1
  O  O1  1  0.15622850  0.58755397  0.50009263  1
  O  O2  1  0.41244603  0.56867453  0.50009263  1
  O  O3  1  0.58755397  0.43132547  0.50009263  1
  O  O4  1  0.56867453  0.15622850  0.50009263  1
  O  O5  1  0.84377150  0.41244603  0.50009263  1
  O  O6  1  0.43132547  0.58755397  0.00009263  1
  O  O7  1  0.84377150  0.43132547  0.00009263  1
  O  O8  1  0.58755397  0.15622850  0.00009263  1
  O  O9  1  0.41244603  0.84377150  0.00009263  1
  O  O10  1  0.15622850  0.56867453  0.00009263  1
  O  O11  1  0.56867453  0.41244603  0.00009263  1
  O  O12  1  0.63139623  0.99116929  0.50311389  1
  O  O13  1  0.00883071  0.64022694  0.50311389  1
  O  O14  1  0.35977306  0.36860377  0.50311389  1
  O  O15  1  0.64022694  0.63139623  0.50311389  1
  O  O16  1  0.36860377  0.00883071  0.50311389  1
  O  O17  1  0.54400412  0.87844015  0.73756250  1
  O  O18  1  0.99116929  0.35977306  0.50311389  1
  O  O19  1  0.99116929  0.63139623  0.00311389  1
  O  O20  1  0.64022694  0.00883071  0.00311389  1
  O  O21  1  0.35977306  0.99116929  0.00311389  1
  O  O22  1  0.00883071  0.36860377  0.00311389  1
  O  O23  1  0.36860377  0.35977306  0.00311389  1
  O  O24  1  0.42043969  0.21520212  0.00746964  1
  O  O25  1  0.20523757  0.42043969  0.00746964  1
  O  O26  1  0.21520212  0.79476243  0.00746964  1
  O  O27  1  0.78479788  0.20523757  0.00746964  1
  O  O28  1  0.79476243  0.57956031  0.00746964  1
  O  O29  1  0.57956031  0.78479788  0.00746964  1
  O  O30  1  0.79476243  0.21520212  0.50746964  1
  O  O31  1  0.42043969  0.20523757  0.50746964  1
  O  O32  1  0.78479788  0.57956031  0.50746964  1
  O  O33  1  0.21520212  0.42043969  0.50746964  1
  O  O34  1  0.20523757  0.78479788  0.50746964  1
  O  O35  1  0.57956031  0.79476243  0.50746964  1
  O  O36  1  0.45599588  0.33443604  0.23756250  1
  O  O37  1  0.12155985  0.45599588  0.23756250  1
  O  O38  1  0.33443604  0.87844015  0.23756250  1
  O  O39  1  0.66556396  0.12155985  0.23756250  1
  O  O40  1  0.87844015  0.54400412  0.23756250  1
  O  O41  1  0.54400412  0.66556396  0.23756250  1
  O  O42  1  0.87844015  0.33443604  0.73756250  1
  O  O43  1  0.45599588  0.12155985  0.73756250  1
  O  O44  1  0.66556396  0.54400412  0.73756250  1
  O  O45  1  0.33443604  0.45599588  0.73756250  1
  O  O46  1  0.12155985  0.66556396  0.73756250  1
  O  O47  1  0.63139623  0.64022694  0.00311389  1
  Al  Al48  1  0.54404924  0.87847011  0.93692858  1
  Al  Al49  1  0.12152989  0.66557914  0.93692858  1
  Al  Al50  1  0.33442086  0.45595076  0.93692858  1
  Al  Al51  1  0.66557914  0.54404924  0.93692858  1
  Al  Al52  1  0.45595076  0.12152989  0.93692858  1
  Al  Al53  1  0.87847011  0.33442086  0.93692858  1
  Al  Al54  1  0.54404924  0.66557914  0.43692858  1
  Al  Al55  1  0.87847011  0.54404924  0.43692858  1
  Al  Al56  1  0.66557914  0.12152989  0.43692858  1
  Al  Al57  1  0.33442086  0.87847011  0.43692858  1
  Al  Al58  1  0.12152989  0.45595076  0.43692858  1
  Al  Al59  1  0.45595076  0.33442086  0.43692858  1
  P  P60  1  0.54618501  0.87724600  0.56213276  1
  P  P61  1  0.12275400  0.66893902  0.56213276  1
  P  P62  1  0.33106098  0.45381499  0.56213276  1
  P  P63  1  0.66893902  0.54618501  0.56213276  1
  P  P64  1  0.45381499  0.12275400  0.56213276  1
  P  P65  1  0.87724600  0.33106098  0.56213276  1
  P  P66  1  0.54618501  0.66893902  0.06213276  1
  P  P67  1  0.87724600  0.54618501  0.06213276  1
  P  P68  1  0.66893902  0.12275400  0.06213276  1
  P  P69  1  0.33106098  0.87724600  0.06213276  1
  P  P70  1  0.12275400  0.45381499  0.06213276  1
  P  P71  1  0.45381499  0.33106098  0.06213276  1
