# generated using pymatgen
data_K2GeAs2
_symmetry_space_group_name_H-M   'P 1'
_cell_length_a   6.67209689
_cell_length_b   7.09788233
_cell_length_c   8.33595556
_cell_angle_alpha   115.19744695
_cell_angle_beta   113.59067470
_cell_angle_gamma   90.00000005
_symmetry_Int_Tables_number   1
_chemical_formula_structural   K2GeAs2
_chemical_formula_sum   'K4 Ge2 As4'
_cell_volume   320.37078327
_cell_formula_units_Z   2
loop_
 _symmetry_equiv_pos_site_id
 _symmetry_equiv_pos_as_xyz
  1  'x, y, z'
loop_
 _atom_site_type_symbol
 _atom_site_label
 _atom_site_symmetry_multiplicity
 _atom_site_fract_x
 _atom_site_fract_y
 _atom_site_fract_z
 _atom_site_occupancy
  K  K0  1  0.64210922  0.30779507  0.28421845  1
  K  K1  1  0.35789078  0.69220493  0.71578155  1
  K  K2  1  0.85789078  0.02357662  0.71578155  1
  K  K3  1  0.14210922  0.97642338  0.28421845  1
  Ge  Ge4  1  0.25000000  0.50000000  0.00000000  1
  Ge  Ge5  1  0.75000000  0.50000000  0.00000000  1
  As  As6  1  0.89615838  0.56684884  0.79231676  1
  As  As7  1  0.10384162  0.43315116  0.20768324  1
  As  As8  1  0.60384162  0.77453208  0.20768324  1
  As  As9  1  0.39615838  0.22546792  0.79231676  1
