# generated using pymatgen
data_ZrMnO3
_symmetry_space_group_name_H-M   'P 1'
_cell_length_a   5.81627108
_cell_length_b   5.81652082
_cell_length_c   5.81701559
_cell_angle_alpha   56.26019769
_cell_angle_beta   56.26024734
_cell_angle_gamma   56.26325689
_symmetry_Int_Tables_number   1
_chemical_formula_structural   ZrMnO3
_chemical_formula_sum   'Zr2 Mn2 O6'
_cell_volume   127.11464982
_cell_formula_units_Z   2
loop_
 _symmetry_equiv_pos_site_id
 _symmetry_equiv_pos_as_xyz
  1  'x, y, z'
loop_
 _atom_site_type_symbol
 _atom_site_label
 _atom_site_symmetry_multiplicity
 _atom_site_fract_x
 _atom_site_fract_y
 _atom_site_fract_z
 _atom_site_occupancy
  Zr  Zr0  1  0.20386976  0.20383924  0.20376688  1
  Zr  Zr1  1  0.70403774  0.70398242  0.70394716  1
  Mn  Mn2  1  0.98689780  0.98701306  0.98674868  1
  Mn  Mn3  1  0.48746768  0.48728336  0.48733754  1
  O  O4  1  0.07946118  0.81378807  0.41604462  1
  O  O5  1  0.41609156  0.07925052  0.81397206  1
  O  O6  1  0.31394170  0.57929733  0.91577267  1
  O  O7  1  0.81389435  0.41582569  0.07931357  1
  O  O8  1  0.57916148  0.91615158  0.31403955  1
  O  O9  1  0.91577776  0.31416974  0.57905627  1
