# generated using pymatgen
data_As4S5
_symmetry_space_group_name_H-M   'P 1'
_cell_length_a   8.09387661
_cell_length_b   8.26183760
_cell_length_c   8.47734936
_cell_angle_alpha   90.00000000
_cell_angle_beta   90.00000000
_cell_angle_gamma   102.63205342
_symmetry_Int_Tables_number   1
_chemical_formula_structural   As4S5
_chemical_formula_sum   'As8 S10'
_cell_volume   553.16120248
_cell_formula_units_Z   2
loop_
 _symmetry_equiv_pos_site_id
 _symmetry_equiv_pos_as_xyz
  1  'x, y, z'
loop_
 _atom_site_type_symbol
 _atom_site_label
 _atom_site_symmetry_multiplicity
 _atom_site_fract_x
 _atom_site_fract_y
 _atom_site_fract_z
 _atom_site_occupancy
  S  S0  1  0.21635864  0.46507830  0.75000000  1
  S  S1  1  0.78364136  0.53492170  0.25000000  1
  S  S2  1  0.47238466  0.22496344  0.04256937  1
  S  S3  1  0.52761534  0.77503656  0.54256937  1
  S  S4  1  0.52761534  0.77503656  0.95743063  1
  S  S5  1  0.47238466  0.22496344  0.45743063  1
  S  S6  1  0.88177954  0.18234511  0.03890365  1
  S  S7  1  0.11822046  0.81765489  0.53890365  1
  S  S8  1  0.88177954  0.18234511  0.46109635  1
  S  S9  1  0.11822046  0.81765489  0.96109635  1
  As  As10  1  0.73752703  0.38837595  0.01939535  1
  As  As11  1  0.26247297  0.61162405  0.51939535  1
  As  As12  1  0.26247297  0.61162405  0.98060465  1
  As  As13  1  0.73752703  0.38837595  0.48060465  1
  As  As14  1  0.52935631  0.95177452  0.75000000  1
  As  As15  1  0.47064369  0.04822548  0.25000000  1
  As  As16  1  0.21726748  0.97763949  0.75000000  1
  As  As17  1  0.78273252  0.02236051  0.25000000  1
