# generated using pymatgen
data_ClO2
_symmetry_space_group_name_H-M   'P 1'
_cell_length_a   5.67417180
_cell_length_b   7.07630395
_cell_length_c   10.93847954
_cell_angle_alpha   90.00000000
_cell_angle_beta   90.00000000
_cell_angle_gamma   90.00000000
_symmetry_Int_Tables_number   1
_chemical_formula_structural   ClO2
_chemical_formula_sum   'Cl8 O16'
_cell_volume   439.20362792
_cell_formula_units_Z   8
loop_
 _symmetry_equiv_pos_site_id
 _symmetry_equiv_pos_as_xyz
  1  'x, y, z'
loop_
 _atom_site_type_symbol
 _atom_site_label
 _atom_site_symmetry_multiplicity
 _atom_site_fract_x
 _atom_site_fract_y
 _atom_site_fract_z
 _atom_site_occupancy
  O  O0  1  0.79207600  0.09421958  0.51570021  1
  O  O1  1  0.29207600  0.90578042  0.98429979  1
  O  O2  1  0.70792400  0.59421958  0.48429979  1
  O  O3  1  0.20792400  0.40578042  0.01570021  1
  O  O4  1  0.20792400  0.90578042  0.48429979  1
  O  O5  1  0.70792400  0.09421958  0.01570021  1
  O  O6  1  0.29207600  0.40578042  0.51570021  1
  O  O7  1  0.79207600  0.59421958  0.98429979  1
  O  O8  1  0.90343509  0.63899996  0.20621289  1
  O  O9  1  0.40343509  0.36100004  0.29378711  1
  O  O10  1  0.59656491  0.13899996  0.79378711  1
  O  O11  1  0.09656491  0.86100004  0.70621289  1
  O  O12  1  0.09656491  0.36100004  0.79378711  1
  O  O13  1  0.59656491  0.63899996  0.70621289  1
  O  O14  1  0.40343509  0.86100004  0.20621289  1
  O  O15  1  0.90343509  0.13899996  0.29378711  1
  Cl  Cl16  1  0.82741470  0.00741657  0.39172539  1
  Cl  Cl17  1  0.32741470  0.99258343  0.10827461  1
  Cl  Cl18  1  0.67258530  0.50741657  0.60827461  1
  Cl  Cl19  1  0.17258530  0.49258343  0.89172539  1
  Cl  Cl20  1  0.17258530  0.99258343  0.60827461  1
  Cl  Cl21  1  0.67258530  0.00741657  0.89172539  1
  Cl  Cl22  1  0.32741470  0.49258343  0.39172539  1
  Cl  Cl23  1  0.82741470  0.50741657  0.10827461  1
