# generated using pymatgen
data_LiMnNbO4
_symmetry_space_group_name_H-M   'P 1'
_cell_length_a   6.28526514
_cell_length_b   6.28526514
_cell_length_c   8.64186420
_cell_angle_alpha   90.00000000
_cell_angle_beta   90.00000000
_cell_angle_gamma   90.00000000
_symmetry_Int_Tables_number   1
_chemical_formula_structural   LiMnNbO4
_chemical_formula_sum   'Li4 Mn4 Nb4 O16'
_cell_volume   341.39302448
_cell_formula_units_Z   4
loop_
 _symmetry_equiv_pos_site_id
 _symmetry_equiv_pos_as_xyz
  1  'x, y, z'
loop_
 _atom_site_type_symbol
 _atom_site_label
 _atom_site_symmetry_multiplicity
 _atom_site_fract_x
 _atom_site_fract_y
 _atom_site_fract_z
 _atom_site_occupancy
  Li  Li0  1  0.00000000  0.22176387  0.00000000  1
  Li  Li1  1  0.00000000  0.77823613  0.50000000  1
  Li  Li2  1  0.22176387  0.00000000  0.25000000  1
  Li  Li3  1  0.77823613  0.00000000  0.75000000  1
  Mn  Mn4  1  0.25658602  0.25658602  0.62500000  1
  Mn  Mn5  1  0.25658602  0.74341398  0.87500000  1
  Mn  Mn6  1  0.74341398  0.25658602  0.37500000  1
  Mn  Mn7  1  0.74341398  0.74341398  0.12500000  1
  Nb  Nb8  1  0.21806448  0.50000000  0.25000000  1
  Nb  Nb9  1  0.50000000  0.21806448  0.00000000  1
  Nb  Nb10  1  0.50000000  0.78193552  0.50000000  1
  Nb  Nb11  1  0.78193552  0.50000000  0.75000000  1
  O  O12  1  0.02628121  0.26524135  0.25280971  1
  O  O13  1  0.02628121  0.73475865  0.24719029  1
  O  O14  1  0.26524135  0.02628121  0.99719029  1
  O  O15  1  0.26524135  0.97371879  0.50280971  1
  O  O16  1  0.26793309  0.48085502  0.01960068  1
  O  O17  1  0.26793309  0.51914498  0.48039932  1
  O  O18  1  0.48085502  0.26793309  0.23039932  1
  O  O19  1  0.48085502  0.73206691  0.26960068  1
  O  O20  1  0.51914498  0.26793309  0.76960068  1
  O  O21  1  0.51914498  0.73206691  0.73039932  1
  O  O22  1  0.73206691  0.51914498  0.51960068  1
  O  O23  1  0.73206691  0.48085502  0.98039932  1
  O  O24  1  0.73475865  0.02628121  0.00280971  1
  O  O25  1  0.73475865  0.97371879  0.49719029  1
  O  O26  1  0.97371879  0.26524135  0.74719029  1
  O  O27  1  0.97371879  0.73475865  0.75280971  1
