# generated using pymatgen
data_Te2MoW3(SeS2)2
_symmetry_space_group_name_H-M   'P 1'
_cell_length_a   3.30858245
_cell_length_b   3.30860491
_cell_length_c   37.66261983
_cell_angle_alpha   90.00002830
_cell_angle_beta   90.00000000
_cell_angle_gamma   119.99977534
_symmetry_Int_Tables_number   1
_chemical_formula_structural   Te2MoW3(SeS2)2
_chemical_formula_sum   'Te2 Mo1 W3 Se2 S4'
_cell_volume   357.04997995
_cell_formula_units_Z   1
loop_
 _symmetry_equiv_pos_site_id
 _symmetry_equiv_pos_as_xyz
  1  'x, y, z'
loop_
 _atom_site_type_symbol
 _atom_site_label
 _atom_site_symmetry_multiplicity
 _atom_site_fract_x
 _atom_site_fract_y
 _atom_site_fract_z
 _atom_site_occupancy
  Te  Te0  1  0.33335286  0.66670672  0.70863626  1
  Te  Te1  1  0.33335509  0.66671117  0.60643896  1
  Mo  Mo2  1  0.33329677  0.66659354  0.46964211  1
  W  W3  1  0.33330816  0.66661633  0.09392329  1
  W  W4  1  0.66669167  0.33338333  0.28179989  1
  W  W5  1  0.66669157  0.33338314  0.65756841  1
  Se  Se6  1  0.66663786  0.33327472  0.04907828  1
  Se  Se7  1  0.66663640  0.33327180  0.13876929  1
  S  S8  1  0.33335420  0.66670940  0.32251500  1
  S  S9  1  0.66665791  0.33331481  0.42910319  1
  S  S10  1  0.66665910  0.33331720  0.51018913  1
  S  S11  1  0.33335842  0.66671784  0.24108419  1
