# generated using pymatgen
data_TlInS2
_symmetry_space_group_name_H-M   'P 1'
_cell_length_a   3.90851993
_cell_length_b   3.90851993
_cell_length_c   15.03170808
_cell_angle_alpha   90.00000000
_cell_angle_beta   90.00000000
_cell_angle_gamma   119.99999994
_symmetry_Int_Tables_number   1
_chemical_formula_structural   TlInS2
_chemical_formula_sum   'Tl2 In2 S4'
_cell_volume   198.86741397
_cell_formula_units_Z   2
loop_
 _symmetry_equiv_pos_site_id
 _symmetry_equiv_pos_as_xyz
  1  'x, y, z'
loop_
 _atom_site_type_symbol
 _atom_site_label
 _atom_site_symmetry_multiplicity
 _atom_site_fract_x
 _atom_site_fract_y
 _atom_site_fract_z
 _atom_site_occupancy
  S  S0  1  0.33333333  0.66666667  0.90371294  1
  S  S1  1  0.66666667  0.33333333  0.40371294  1
  S  S2  1  0.33333333  0.66666667  0.59628706  1
  S  S3  1  0.66666667  0.33333333  0.09628706  1
  In  In4  1  0.00000000  0.00000000  0.50000000  1
  In  In5  1  0.00000000  0.00000000  0.00000000  1
  Tl  Tl6  1  0.66666667  0.33333333  0.75000000  1
  Tl  Tl7  1  0.33333333  0.66666667  0.25000000  1
