# generated using pymatgen
data_Ba(BS2)2
_symmetry_space_group_name_H-M   'P 1'
_cell_length_a   6.06975875
_cell_length_b   6.82463492
_cell_length_c   8.69324134
_cell_angle_alpha   66.88827551
_cell_angle_beta   82.36278526
_cell_angle_gamma   70.20977943
_symmetry_Int_Tables_number   1
_chemical_formula_structural   Ba(BS2)2
_chemical_formula_sum   'Ba2 B4 S8'
_cell_volume   311.64452437
_cell_formula_units_Z   2
loop_
 _symmetry_equiv_pos_site_id
 _symmetry_equiv_pos_as_xyz
  1  'x, y, z'
loop_
 _atom_site_type_symbol
 _atom_site_label
 _atom_site_symmetry_multiplicity
 _atom_site_fract_x
 _atom_site_fract_y
 _atom_site_fract_z
 _atom_site_occupancy
  B  B0  1  0.56090673  0.54161161  0.96244320  1
  B  B1  1  0.06090673  0.50405480  0.03755680  1
  B  B2  1  0.87280593  0.13621225  0.26407380  1
  B  B3  1  0.37280593  0.40028605  0.73592620  1
  S  S4  1  0.74843534  0.70949338  0.97747770  1
  S  S5  1  0.06021230  0.29490618  0.26731767  1
  S  S6  1  0.41840747  0.29473203  0.57122024  1
  S  S7  1  0.91840747  0.86595228  0.42877976  1
  S  S8  1  0.66519080  0.22226288  0.09962309  1
  S  S9  1  0.16519080  0.32188598  0.90037691  1
  S  S10  1  0.56021230  0.56222386  0.73268233  1
  S  S11  1  0.24843534  0.68697109  0.02252230  1
  Ba  Ba12  1  0.95612143  0.10761724  0.69337312  1
  Ba  Ba13  1  0.45612143  0.80099036  0.30662688  1
