# generated using pymatgen
data_PCl3
_symmetry_space_group_name_H-M   'P 1'
_cell_length_a   6.52315213
_cell_length_b   8.98753332
_cell_length_c   10.07448520
_cell_angle_alpha   90.00000000
_cell_angle_beta   90.00000000
_cell_angle_gamma   90.00000000
_symmetry_Int_Tables_number   1
_chemical_formula_structural   PCl3
_chemical_formula_sum   'P4 Cl12'
_cell_volume   590.63731853
_cell_formula_units_Z   4
loop_
 _symmetry_equiv_pos_site_id
 _symmetry_equiv_pos_as_xyz
  1  'x, y, z'
loop_
 _atom_site_type_symbol
 _atom_site_label
 _atom_site_symmetry_multiplicity
 _atom_site_fract_x
 _atom_site_fract_y
 _atom_site_fract_z
 _atom_site_occupancy
  P  P0  1  0.92372759  0.97250072  0.75000000  1
  P  P1  1  0.42372759  0.52749928  0.25000000  1
  P  P2  1  0.57627241  0.47250072  0.75000000  1
  P  P3  1  0.07627241  0.02749928  0.25000000  1
  Cl  Cl4  1  0.74475069  0.90285768  0.90788488  1
  Cl  Cl5  1  0.24475069  0.59714232  0.09211512  1
  Cl  Cl6  1  0.75524931  0.40285768  0.59211512  1
  Cl  Cl7  1  0.25524931  0.09714232  0.40788488  1
  Cl  Cl8  1  0.85133833  0.19007565  0.25000000  1
  Cl  Cl9  1  0.35133833  0.30992435  0.75000000  1
  Cl  Cl10  1  0.64866167  0.69007565  0.25000000  1
  Cl  Cl11  1  0.14866167  0.80992435  0.75000000  1
  Cl  Cl12  1  0.74475069  0.90285768  0.59211512  1
  Cl  Cl13  1  0.24475069  0.59714232  0.40788488  1
  Cl  Cl14  1  0.75524931  0.40285768  0.90788488  1
  Cl  Cl15  1  0.25524931  0.09714232  0.09211512  1
