# generated using pymatgen
data_Ca2IN
_symmetry_space_group_name_H-M   'P 1'
_cell_length_a   3.81794245
_cell_length_b   3.81794245
_cell_length_c   14.65963656
_cell_angle_alpha   90.00000000
_cell_angle_beta   90.00000000
_cell_angle_gamma   119.99999995
_symmetry_Int_Tables_number   1
_chemical_formula_structural   Ca2IN
_chemical_formula_sum   'Ca4 I2 N2'
_cell_volume   185.06001387
_cell_formula_units_Z   2
loop_
 _symmetry_equiv_pos_site_id
 _symmetry_equiv_pos_as_xyz
  1  'x, y, z'
loop_
 _atom_site_type_symbol
 _atom_site_label
 _atom_site_symmetry_multiplicity
 _atom_site_fract_x
 _atom_site_fract_y
 _atom_site_fract_z
 _atom_site_occupancy
  N  N0  1  0.00000000  0.00000000  0.00000000  1
  N  N1  1  0.00000000  0.00000000  0.50000000  1
  Ca  Ca2  1  0.33333333  0.66666667  0.08208318  1
  Ca  Ca3  1  0.33333333  0.66666667  0.41791682  1
  Ca  Ca4  1  0.66666667  0.33333333  0.58208318  1
  Ca  Ca5  1  0.66666667  0.33333333  0.91791682  1
  I  I6  1  0.33333333  0.66666667  0.75000000  1
  I  I7  1  0.66666667  0.33333333  0.25000000  1
