# generated using pymatgen
data_K3Ta3Si2O13
_symmetry_space_group_name_H-M   'P 1'
_cell_length_a   9.20529378
_cell_length_b   9.20529378
_cell_length_c   7.89292853
_cell_angle_alpha   90.00000000
_cell_angle_beta   90.00000000
_cell_angle_gamma   120.00000001
_symmetry_Int_Tables_number   1
_chemical_formula_structural   K3Ta3Si2O13
_chemical_formula_sum   'K6 Ta6 Si4 O26'
_cell_volume   579.22074561
_cell_formula_units_Z   2
loop_
 _symmetry_equiv_pos_site_id
 _symmetry_equiv_pos_as_xyz
  1  'x, y, z'
loop_
 _atom_site_type_symbol
 _atom_site_label
 _atom_site_symmetry_multiplicity
 _atom_site_fract_x
 _atom_site_fract_y
 _atom_site_fract_z
 _atom_site_occupancy
  O  O0  1  0.00000000  0.23184109  0.50000000  1
  O  O1  1  0.76815891  0.76815891  0.50000000  1
  O  O2  1  0.23184109  0.00000000  0.50000000  1
  O  O3  1  0.51425940  0.69562913  0.27086194  1
  O  O4  1  0.30437087  0.81863028  0.27086194  1
  O  O5  1  0.18136972  0.48574060  0.27086194  1
  O  O6  1  0.48574060  0.18136972  0.72913806  1
  O  O7  1  0.18136972  0.48574060  0.72913806  1
  O  O8  1  0.51425940  0.69562913  0.72913806  1
  O  O9  1  0.30437087  0.81863028  0.72913806  1
  O  O10  1  0.69562913  0.51425940  0.27086194  1
  O  O11  1  0.81863028  0.30437087  0.27086194  1
  O  O12  1  0.81863028  0.30437087  0.72913806  1
  O  O13  1  0.69562913  0.51425940  0.72913806  1
  O  O14  1  0.48574060  0.18136972  0.27086194  1
  O  O15  1  0.82488987  0.00000000  0.76379293  1
  O  O16  1  0.33333333  0.66666667  0.00000000  1
  O  O17  1  0.66666667  0.33333333  0.00000000  1
  O  O18  1  0.26780672  0.00000000  0.00000000  1
  O  O19  1  0.73219328  0.73219328  0.00000000  1
  O  O20  1  0.00000000  0.26780672  0.00000000  1
  O  O21  1  0.82488987  0.00000000  0.23620707  1
  O  O22  1  0.17511013  0.17511013  0.76379293  1
  O  O23  1  0.00000000  0.82488987  0.76379293  1
  O  O24  1  0.00000000  0.82488987  0.23620707  1
  O  O25  1  0.17511013  0.17511013  0.23620707  1
  Si  Si26  1  0.66666667  0.33333333  0.20937294  1
  Si  Si27  1  0.66666667  0.33333333  0.79062706  1
  Si  Si28  1  0.33333333  0.66666667  0.79062706  1
  Si  Si29  1  0.33333333  0.66666667  0.20937294  1
  K  K30  1  0.40251556  0.40251556  0.50000000  1
  K  K31  1  0.00000000  0.59748444  0.50000000  1
  K  K32  1  0.61119393  0.00000000  0.00000000  1
  K  K33  1  0.38880607  0.38880607  0.00000000  1
  K  K34  1  0.59748444  0.00000000  0.50000000  1
  K  K35  1  0.00000000  0.61119393  0.00000000  1
  Ta  Ta36  1  0.23741059  0.00000000  0.25075558  1
  Ta  Ta37  1  0.00000000  0.23741059  0.74924442  1
  Ta  Ta38  1  0.00000000  0.23741059  0.25075558  1
  Ta  Ta39  1  0.76258941  0.76258941  0.25075558  1
  Ta  Ta40  1  0.23741059  0.00000000  0.74924442  1
  Ta  Ta41  1  0.76258941  0.76258941  0.74924442  1
