# generated using pymatgen
data_NbCl4
_symmetry_space_group_name_H-M   'P 1'
_cell_length_a   6.89699873
_cell_length_b   7.40952603
_cell_length_c   7.55995442
_cell_angle_alpha   71.42471081
_cell_angle_beta   62.86082549
_cell_angle_gamma   62.26296191
_symmetry_Int_Tables_number   1
_chemical_formula_structural   NbCl4
_chemical_formula_sum   'Nb2 Cl8'
_cell_volume   301.51754200
_cell_formula_units_Z   2
loop_
 _symmetry_equiv_pos_site_id
 _symmetry_equiv_pos_as_xyz
  1  'x, y, z'
loop_
 _atom_site_type_symbol
 _atom_site_label
 _atom_site_symmetry_multiplicity
 _atom_site_fract_x
 _atom_site_fract_y
 _atom_site_fract_z
 _atom_site_occupancy
  Cl  Cl0  1  0.66679960  0.81080160  0.85559920  1
  Cl  Cl1  1  0.33320040  0.18919840  0.14440080  1
  Cl  Cl2  1  0.80822980  0.21753344  0.16600696  1
  Cl  Cl3  1  0.19177020  0.78246656  0.83399304  1
  Cl  Cl4  1  0.73440284  0.75768754  0.28464774  1
  Cl  Cl5  1  0.77673812  0.24231246  0.71535226  1
  Cl  Cl6  1  0.26559716  0.24231246  0.71535226  1
  Cl  Cl7  1  0.22326188  0.75768754  0.28464774  1
  Nb  Nb8  1  0.22000447  0.00000000  0.00000000  1
  Nb  Nb9  1  0.77999553  0.00000000  0.00000000  1
