# generated using pymatgen
data_LiUO3
_symmetry_space_group_name_H-M   'P 1'
_cell_length_a   5.93316308
_cell_length_b   5.93316308
_cell_length_c   5.93316309
_cell_angle_alpha   55.01501340
_cell_angle_beta   55.01501340
_cell_angle_gamma   55.01501341
_symmetry_Int_Tables_number   1
_chemical_formula_structural   LiUO3
_chemical_formula_sum   'Li2 U2 O6'
_cell_volume   130.55896086
_cell_formula_units_Z   2
loop_
 _symmetry_equiv_pos_site_id
 _symmetry_equiv_pos_as_xyz
  1  'x, y, z'
loop_
 _atom_site_type_symbol
 _atom_site_label
 _atom_site_symmetry_multiplicity
 _atom_site_fract_x
 _atom_site_fract_y
 _atom_site_fract_z
 _atom_site_occupancy
  Li  Li0  1  0.46512297  0.46512297  0.46512297  1
  Li  Li1  1  0.96512297  0.96512297  0.96512297  1
  O  O2  1  0.12923852  0.84476027  0.50267546  1
  O  O3  1  0.34476027  0.62923852  0.00267546  1
  O  O4  1  0.62923852  0.00267546  0.34476027  1
  O  O5  1  0.00267546  0.34476027  0.62923852  1
  O  O6  1  0.50267546  0.12923852  0.84476027  1
  O  O7  1  0.84476027  0.50267546  0.12923852  1
  U  U8  1  0.23820278  0.23820278  0.23820278  1
  U  U9  1  0.73820278  0.73820278  0.73820278  1
