# generated using pymatgen
data_GeF2
_symmetry_space_group_name_H-M   'P 1'
_cell_length_a   4.97134296
_cell_length_b   5.23964378
_cell_length_c   8.24597096
_cell_angle_alpha   90.00000000
_cell_angle_beta   90.00000000
_cell_angle_gamma   90.00000000
_symmetry_Int_Tables_number   1
_chemical_formula_structural   GeF2
_chemical_formula_sum   'Ge4 F8'
_cell_volume   214.79159760
_cell_formula_units_Z   4
loop_
 _symmetry_equiv_pos_site_id
 _symmetry_equiv_pos_as_xyz
  1  'x, y, z'
loop_
 _atom_site_type_symbol
 _atom_site_label
 _atom_site_symmetry_multiplicity
 _atom_site_fract_x
 _atom_site_fract_y
 _atom_site_fract_z
 _atom_site_occupancy
  F  F0  1  0.40535476  0.74619872  0.78527445  1
  F  F1  1  0.90535476  0.75380128  0.21472555  1
  F  F2  1  0.59464524  0.24619872  0.71472555  1
  F  F3  1  0.09464524  0.25380128  0.28527445  1
  F  F4  1  0.96555482  0.12701028  0.96926917  1
  F  F5  1  0.46555482  0.37298972  0.03073083  1
  F  F6  1  0.03444518  0.62701028  0.53073083  1
  F  F7  1  0.53444518  0.87298972  0.46926917  1
  Ge  Ge8  1  0.27391976  0.97467739  0.62401460  1
  Ge  Ge9  1  0.77391976  0.52532261  0.37598540  1
  Ge  Ge10  1  0.72608024  0.47467739  0.87598540  1
  Ge  Ge11  1  0.22608024  0.02532261  0.12401460  1
