# generated using pymatgen
data_Cr4OF11
_symmetry_space_group_name_H-M   'P 1'
_cell_length_a   5.07715250
_cell_length_b   7.41288039
_cell_length_c   5.33143005
_cell_angle_alpha   93.72159945
_cell_angle_beta   89.16786319
_cell_angle_gamma   89.95486418
_symmetry_Int_Tables_number   1
_chemical_formula_structural   Cr4OF11
_chemical_formula_sum   'Cr4 O1 F11'
_cell_volume   200.21087350
_cell_formula_units_Z   1
loop_
 _symmetry_equiv_pos_site_id
 _symmetry_equiv_pos_as_xyz
  1  'x, y, z'
loop_
 _atom_site_type_symbol
 _atom_site_label
 _atom_site_symmetry_multiplicity
 _atom_site_fract_x
 _atom_site_fract_y
 _atom_site_fract_z
 _atom_site_occupancy
  Cr  Cr0  1  0.49943184  0.49924509  0.50004755  1
  Cr  Cr1  1  0.51211740  0.00074198  0.48878090  1
  Cr  Cr2  1  -0.00015947  0.49915468  -0.00000197  1
  Cr  Cr3  1  0.98877162  0.00114363  0.01178301  1
  O  O4  1  0.80833952  0.05990008  0.30778029  1
  F  F5  1  0.87930000  0.74933963  0.99971505  1
  F  F6  1  0.80955019  0.44123748  0.69044875  1
  F  F7  1  0.68798819  0.43639505  0.18850094  1
  F  F8  1  0.69152609  0.05732755  0.80661195  1
  F  F9  1  0.61844639  0.74936271  0.49813823  1
  F  F10  1  0.38274749  0.24906970  0.50078986  1
  F  F11  1  0.30669530  0.93977088  0.19014429  1
  F  F12  1  0.31163470  0.56159417  0.81182780  1
  F  F13  1  0.18999746  0.55832639  0.30932414  1
  F  F14  1  0.19763461  0.94814044  0.69730355  1
  F  F15  1  0.11597768  0.24925154  0.99880566  1
