# generated using pymatgen
data_SbI3
_symmetry_space_group_name_H-M   'P 1'
_cell_length_a   8.82592365
_cell_length_b   8.82592366
_cell_length_c   8.82592366
_cell_angle_alpha   51.48597643
_cell_angle_beta   51.48597647
_cell_angle_gamma   51.48597639
_symmetry_Int_Tables_number   1
_chemical_formula_structural   SbI3
_chemical_formula_sum   'Sb2 I6'
_cell_volume   388.69437695
_cell_formula_units_Z   2
loop_
 _symmetry_equiv_pos_site_id
 _symmetry_equiv_pos_as_xyz
  1  'x, y, z'
loop_
 _atom_site_type_symbol
 _atom_site_label
 _atom_site_symmetry_multiplicity
 _atom_site_fract_x
 _atom_site_fract_y
 _atom_site_fract_z
 _atom_site_occupancy
  Sb  Sb0  1  0.16793337  0.16793337  0.16793337  1
  Sb  Sb1  1  0.83206663  0.83206663  0.83206663  1
  I  I2  1  0.42456420  0.06444556  0.77508668  1
  I  I3  1  0.77508668  0.42456420  0.06444556  1
  I  I4  1  0.06444556  0.77508668  0.42456420  1
  I  I5  1  0.57543580  0.93555444  0.22491332  1
  I  I6  1  0.22491332  0.57543580  0.93555444  1
  I  I7  1  0.93555444  0.22491332  0.57543580  1
