# generated using pymatgen
data_Rb3Sn4Au
_symmetry_space_group_name_H-M   'P 1'
_cell_length_a   6.73913593
_cell_length_b   7.15903587
_cell_length_c   13.50312457
_cell_angle_alpha   90.00000000
_cell_angle_beta   90.00000000
_cell_angle_gamma   90.00000000
_symmetry_Int_Tables_number   1
_chemical_formula_structural   Rb3Sn4Au
_chemical_formula_sum   'Rb6 Sn8 Au2'
_cell_volume   651.46791117
_cell_formula_units_Z   2
loop_
 _symmetry_equiv_pos_site_id
 _symmetry_equiv_pos_as_xyz
  1  'x, y, z'
loop_
 _atom_site_type_symbol
 _atom_site_label
 _atom_site_symmetry_multiplicity
 _atom_site_fract_x
 _atom_site_fract_y
 _atom_site_fract_z
 _atom_site_occupancy
  Rb  Rb0  1  0.54845655  0.25000000  0.25000000  1
  Rb  Rb1  1  0.45154345  0.75000000  0.75000000  1
  Rb  Rb2  1  0.82314923  0.75000000  0.99582774  1
  Rb  Rb3  1  0.82314923  0.75000000  0.50417226  1
  Rb  Rb4  1  0.17685077  0.25000000  0.00417226  1
  Rb  Rb5  1  0.17685077  0.25000000  0.49582774  1
  Sn  Sn6  1  0.32367853  0.75000000  0.13414624  1
  Sn  Sn7  1  0.32367853  0.75000000  0.36585376  1
  Sn  Sn8  1  0.03245971  0.52707248  0.25000000  1
  Sn  Sn9  1  0.03245971  0.97292752  0.25000000  1
  Sn  Sn10  1  0.96754029  0.02707248  0.75000000  1
  Sn  Sn11  1  0.96754029  0.47292752  0.75000000  1
  Sn  Sn12  1  0.67632147  0.25000000  0.63414624  1
  Sn  Sn13  1  0.67632147  0.25000000  0.86585376  1
  Au  Au14  1  0.67889425  0.75000000  0.25000000  1
  Au  Au15  1  0.32110575  0.25000000  0.75000000  1
