# generated using pymatgen
data_Pb2O3
_symmetry_space_group_name_H-M   'P 1'
_cell_length_a   5.76238904
_cell_length_b   7.69950495
_cell_length_c   7.97431025
_cell_angle_alpha   112.91127771
_cell_angle_beta   90.00000000
_cell_angle_gamma   90.00000000
_symmetry_Int_Tables_number   1
_chemical_formula_structural   Pb2O3
_chemical_formula_sum   'Pb8 O12'
_cell_volume   325.88880061
_cell_formula_units_Z   4
loop_
 _symmetry_equiv_pos_site_id
 _symmetry_equiv_pos_as_xyz
  1  'x, y, z'
loop_
 _atom_site_type_symbol
 _atom_site_label
 _atom_site_symmetry_multiplicity
 _atom_site_fract_x
 _atom_site_fract_y
 _atom_site_fract_z
 _atom_site_occupancy
  O  O0  1  0.63035675  0.63055787  0.73568405  1
  O  O1  1  0.13035675  0.36944213  0.76431595  1
  O  O2  1  0.36964325  0.36944213  0.26431595  1
  O  O3  1  0.86964325  0.63055787  0.23568405  1
  O  O4  1  0.90890255  0.19090479  0.05122941  1
  O  O5  1  0.40890255  0.80909521  0.44877059  1
  O  O6  1  0.09109745  0.80909521  0.94877059  1
  O  O7  1  0.59109745  0.19090479  0.55122941  1
  O  O8  1  0.43312313  0.06716443  0.86031084  1
  O  O9  1  0.93312313  0.93283557  0.63968916  1
  O  O10  1  0.56687687  0.93283557  0.13968916  1
  O  O11  1  0.06687687  0.06716443  0.36031084  1
  Pb  Pb12  1  0.75446287  0.91232830  0.88362260  1
  Pb  Pb13  1  0.25446287  0.08767170  0.61637740  1
  Pb  Pb14  1  0.24553713  0.08767170  0.11637740  1
  Pb  Pb15  1  0.74553713  0.91232830  0.38362260  1
  Pb  Pb16  1  0.74432018  0.38752917  0.84981708  1
  Pb  Pb17  1  0.24432018  0.61247083  0.65018292  1
  Pb  Pb18  1  0.25567982  0.61247083  0.15018292  1
  Pb  Pb19  1  0.75567982  0.38752917  0.34981708  1
