# generated using pymatgen
data_Na(SnAs)2
_symmetry_space_group_name_H-M   'P 1'
_cell_length_a   9.66276581
_cell_length_b   9.66276581
_cell_length_c   9.66276580
_cell_angle_alpha   24.33445904
_cell_angle_beta   24.33445901
_cell_angle_gamma   24.33445903
_symmetry_Int_Tables_number   1
_chemical_formula_structural   Na(SnAs)2
_chemical_formula_sum   'Na1 Sn2 As2'
_cell_volume   134.65943465
_cell_formula_units_Z   1
loop_
 _symmetry_equiv_pos_site_id
 _symmetry_equiv_pos_as_xyz
  1  'x, y, z'
loop_
 _atom_site_type_symbol
 _atom_site_label
 _atom_site_symmetry_multiplicity
 _atom_site_fract_x
 _atom_site_fract_y
 _atom_site_fract_z
 _atom_site_occupancy
  Na  Na0  1  0.00000000  0.00000000  0.00000000  1
  As  As1  1  0.40706873  0.40706873  0.40706873  1
  As  As2  1  0.59293127  0.59293127  0.59293127  1
  Sn  Sn3  1  0.21093036  0.21093036  0.21093036  1
  Sn  Sn4  1  0.78906964  0.78906964  0.78906964  1
