# generated using pymatgen
data_LiCrSiO4
_symmetry_space_group_name_H-M   'P 1'
_cell_length_a   5.69597275
_cell_length_b   5.69597275
_cell_length_c   8.04460867
_cell_angle_alpha   90.00000000
_cell_angle_beta   90.00000000
_cell_angle_gamma   90.00000000
_symmetry_Int_Tables_number   1
_chemical_formula_structural   LiCrSiO4
_chemical_formula_sum   'Li4 Cr4 Si4 O16'
_cell_volume   261.00013295
_cell_formula_units_Z   4
loop_
 _symmetry_equiv_pos_site_id
 _symmetry_equiv_pos_as_xyz
  1  'x, y, z'
loop_
 _atom_site_type_symbol
 _atom_site_label
 _atom_site_symmetry_multiplicity
 _atom_site_fract_x
 _atom_site_fract_y
 _atom_site_fract_z
 _atom_site_occupancy
  Li  Li0  1  0.00000000  0.22053041  0.00000000  1
  Li  Li1  1  0.00000000  0.77946959  0.50000000  1
  Li  Li2  1  0.22053041  0.00000000  0.25000000  1
  Li  Li3  1  0.77946959  0.00000000  0.75000000  1
  Cr  Cr4  1  0.23453052  0.50000000  0.25000000  1
  Cr  Cr5  1  0.50000000  0.23453052  0.00000000  1
  Cr  Cr6  1  0.50000000  0.76546948  0.50000000  1
  Cr  Cr7  1  0.76546948  0.50000000  0.75000000  1
  Si  Si8  1  0.25543294  0.25543294  0.62500000  1
  Si  Si9  1  0.25543294  0.74456706  0.87500000  1
  Si  Si10  1  0.74456706  0.25543294  0.37500000  1
  Si  Si11  1  0.74456706  0.74456706  0.12500000  1
  O  O12  1  0.98413881  0.26010237  0.26138808  1
  O  O13  1  0.98413881  0.73989763  0.23861192  1
  O  O14  1  0.26010237  0.98413881  0.98861192  1
  O  O15  1  0.26010237  0.01586119  0.51138808  1
  O  O16  1  0.25982490  0.49565276  0.50068476  1
  O  O17  1  0.25982490  0.50434724  0.99931524  1
  O  O18  1  0.50434724  0.25982490  0.25068476  1
  O  O19  1  0.50434724  0.74017510  0.24931524  1
  O  O20  1  0.49565276  0.25982490  0.74931524  1
  O  O21  1  0.49565276  0.74017510  0.75068476  1
  O  O22  1  0.74017510  0.49565276  0.49931524  1
  O  O23  1  0.74017510  0.50434724  0.00068476  1
  O  O24  1  0.73989763  0.01586119  0.48861192  1
  O  O25  1  0.73989763  0.98413881  0.01138808  1
  O  O26  1  0.01586119  0.26010237  0.73861192  1
  O  O27  1  0.01586119  0.73989763  0.76138808  1
