# generated using pymatgen
data_AlPO4
_symmetry_space_group_name_H-M   'P 1'
_cell_length_a   5.33597370
_cell_length_b   5.33597357
_cell_length_c   8.71484255
_cell_angle_alpha   89.99998653
_cell_angle_beta   90.00003701
_cell_angle_gamma   119.99994920
_symmetry_Int_Tables_number   1
_chemical_formula_structural   AlPO4
_chemical_formula_sum   'Al2 P2 O8'
_cell_volume   214.89076388
_cell_formula_units_Z   2
loop_
 _symmetry_equiv_pos_site_id
 _symmetry_equiv_pos_as_xyz
  1  'x, y, z'
loop_
 _atom_site_type_symbol
 _atom_site_label
 _atom_site_symmetry_multiplicity
 _atom_site_fract_x
 _atom_site_fract_y
 _atom_site_fract_z
 _atom_site_occupancy
  O  O0  1  0.51067057  0.02134060  0.99541341  1
  P  P1  1  0.33333329  0.66666691  0.43696900  1
  O  O2  1  0.48932966  0.51067049  0.49541351  1
  O  O3  1  0.48932945  0.97865958  0.49541349  1
  O  O4  1  0.66666673  0.33333323  0.76153186  1
  O  O5  1  0.33333324  0.66666668  0.26153200  1
  O  O6  1  0.97865934  0.48932903  0.99541351  1
  Al  Al7  1  0.66666672  0.33333344  0.56205845  1
  P  P8  1  0.66666661  0.33333319  0.93696924  1
  O  O9  1  0.51067056  0.48932951  0.99541342  1
  Al  Al10  1  0.33333328  0.66666662  0.06205855  1
  O  O11  1  0.02134055  0.51067069  0.49541355  1
