# generated using pymatgen
data_HgSO4
_symmetry_space_group_name_H-M   'P 1'
_cell_length_a   4.92999414
_cell_length_b   4.98348535
_cell_length_c   6.66510994
_cell_angle_alpha   90.00000000
_cell_angle_beta   90.00000000
_cell_angle_gamma   90.00000000
_symmetry_Int_Tables_number   1
_chemical_formula_structural   HgSO4
_chemical_formula_sum   'Hg2 S2 O8'
_cell_volume   163.75211063
_cell_formula_units_Z   2
loop_
 _symmetry_equiv_pos_site_id
 _symmetry_equiv_pos_as_xyz
  1  'x, y, z'
loop_
 _atom_site_type_symbol
 _atom_site_label
 _atom_site_symmetry_multiplicity
 _atom_site_fract_x
 _atom_site_fract_y
 _atom_site_fract_z
 _atom_site_occupancy
  O  O0  1  0.81957996  0.60977845  0.82282770  1
  O  O1  1  0.18042004  0.10977845  0.67717230  1
  O  O2  1  0.18042004  0.10977845  0.32282770  1
  O  O3  1  0.81957996  0.60977845  0.17717230  1
  O  O4  1  0.38518909  0.68029566  0.00000000  1
  O  O5  1  0.61481091  0.18029566  0.50000000  1
  O  O6  1  0.71468449  0.03488724  0.00000000  1
  O  O7  1  0.28531551  0.53488724  0.50000000  1
  S  S8  1  0.31902530  0.23935973  0.50000000  1
  S  S9  1  0.68097470  0.73935973  0.00000000  1
  Hg  Hg10  1  0.82364824  0.75380046  0.50000000  1
  Hg  Hg11  1  0.17635176  0.25380046  0.00000000  1
