# generated using pymatgen
data_ScCl3
_symmetry_space_group_name_H-M   'P 1'
_cell_length_a   7.45305531
_cell_length_b   7.45305531
_cell_length_c   7.45305530
_cell_angle_alpha   51.64808706
_cell_angle_beta   51.64808708
_cell_angle_gamma   51.64808714
_symmetry_Int_Tables_number   1
_chemical_formula_structural   ScCl3
_chemical_formula_sum   'Sc2 Cl6'
_cell_volume   235.20438421
_cell_formula_units_Z   2
loop_
 _symmetry_equiv_pos_site_id
 _symmetry_equiv_pos_as_xyz
  1  'x, y, z'
loop_
 _atom_site_type_symbol
 _atom_site_label
 _atom_site_symmetry_multiplicity
 _atom_site_fract_x
 _atom_site_fract_y
 _atom_site_fract_z
 _atom_site_occupancy
  Cl  Cl0  1  0.55606615  0.29473554  0.92626464  1
  Cl  Cl1  1  0.29473554  0.92626464  0.55606615  1
  Cl  Cl2  1  0.07373536  0.44393385  0.70526446  1
  Cl  Cl3  1  0.70526446  0.07373536  0.44393385  1
  Cl  Cl4  1  0.44393385  0.70526446  0.07373536  1
  Cl  Cl5  1  0.92626464  0.55606615  0.29473554  1
  Sc  Sc6  1  0.66606441  0.66606441  0.66606441  1
  Sc  Sc7  1  0.33393559  0.33393559  0.33393559  1
