# generated using pymatgen
data_Tl2TeI6
_symmetry_space_group_name_H-M   'P 1'
_cell_length_a   8.02511813
_cell_length_b   8.61807394
_cell_length_c   11.48177713
_cell_angle_alpha   90.00000000
_cell_angle_beta   90.52044542
_cell_angle_gamma   90.00000000
_symmetry_Int_Tables_number   1
_chemical_formula_structural   Tl2TeI6
_chemical_formula_sum   'Tl4 Te2 I12'
_cell_volume   794.05913352
_cell_formula_units_Z   2
loop_
 _symmetry_equiv_pos_site_id
 _symmetry_equiv_pos_as_xyz
  1  'x, y, z'
loop_
 _atom_site_type_symbol
 _atom_site_label
 _atom_site_symmetry_multiplicity
 _atom_site_fract_x
 _atom_site_fract_y
 _atom_site_fract_z
 _atom_site_occupancy
  Te  Te0  1  0.00000000  0.00000000  0.00000000  1
  Te  Te1  1  0.50000000  0.50000000  0.50000000  1
  I  I2  1  0.31169865  0.20636468  0.54050202  1
  I  I3  1  0.18830135  0.70636468  0.95949798  1
  I  I4  1  0.68830135  0.79363532  0.45949798  1
  I  I5  1  0.81169865  0.29363532  0.04050202  1
  I  I6  1  0.09151816  0.99042642  0.25175109  1
  I  I7  1  0.40848184  0.49042642  0.24824891  1
  I  I8  1  0.90848184  0.00957358  0.74824891  1
  I  I9  1  0.59151816  0.50957358  0.75175109  1
  I  I10  1  0.19660602  0.68915825  0.54689249  1
  I  I11  1  0.30339398  0.18915825  0.95310751  1
  I  I12  1  0.80339398  0.31084175  0.45310751  1
  I  I13  1  0.69660602  0.81084175  0.04689249  1
  Tl  Tl14  1  0.47184212  0.90433010  0.75329194  1
  Tl  Tl15  1  0.02815788  0.40433010  0.74670806  1
  Tl  Tl16  1  0.52815788  0.09566990  0.24670806  1
  Tl  Tl17  1  0.97184212  0.59566990  0.25329194  1
