# generated using pymatgen
data_Tl9SbTe6
_symmetry_space_group_name_H-M   'P 1'
_cell_length_a   8.94211282
_cell_length_b   8.94208970
_cell_length_c   9.26518222
_cell_angle_alpha   118.84847128
_cell_angle_beta   118.84578873
_cell_angle_gamma   90.00483145
_symmetry_Int_Tables_number   1
_chemical_formula_structural   Tl9SbTe6
_chemical_formula_sum   'Tl9 Sb1 Te6'
_cell_volume   541.58352755
_cell_formula_units_Z   1
loop_
 _symmetry_equiv_pos_site_id
 _symmetry_equiv_pos_as_xyz
  1  'x, y, z'
loop_
 _atom_site_type_symbol
 _atom_site_label
 _atom_site_symmetry_multiplicity
 _atom_site_fract_x
 _atom_site_fract_y
 _atom_site_fract_z
 _atom_site_occupancy
  Tl  Tl0  1  0.20016575  0.99381506  0.69871350  1
  Tl  Tl1  1  0.01519589  0.52111791  0.32855889  1
  Tl  Tl2  1  0.00419547  0.00420730  0.00845095  1
  Tl  Tl3  1  0.31315892  0.80741863  0.32840361  1
  Tl  Tl4  1  0.49860264  0.70496494  0.69882507  1
  Tl  Tl5  1  0.70521770  0.20049753  0.69913201  1
  Tl  Tl6  1  0.52108216  0.31332869  0.32865877  1
  Tl  Tl7  1  0.80764295  0.01523546  0.32881174  1
  Tl  Tl8  1  0.99394130  0.49860613  0.69907774  1
  Sb  Sb9  1  0.49999445  0.49992568  -0.00005107  1
  Te  Te10  1  0.27856663  0.27853900  0.55704349  1
  Te  Te11  1  0.18557505  0.35806779  0.01557448  1
  Te  Te12  1  0.35819981  0.83015488  0.01563169  1
  Te  Te13  1  0.75106227  0.75109163  0.50202442  1
  Te  Te14  1  0.65734561  0.18555607  0.01561137  1
  Te  Te15  1  0.83015240  0.65757327  0.01573034  1
