# generated using pymatgen
data_LiMnP2O7
_symmetry_space_group_name_H-M   'P 1'
_cell_length_a   5.30109022
_cell_length_b   5.30108986
_cell_length_c   4.61052390
_cell_angle_alpha   78.96382403
_cell_angle_beta   101.03617527
_cell_angle_gamma   79.69718698
_symmetry_Int_Tables_number   1
_chemical_formula_structural   LiMnP2O7
_chemical_formula_sum   'Li1 Mn1 P2 O7'
_cell_volume   121.65221804
_cell_formula_units_Z   1
loop_
 _symmetry_equiv_pos_site_id
 _symmetry_equiv_pos_as_xyz
  1  'x, y, z'
loop_
 _atom_site_type_symbol
 _atom_site_label
 _atom_site_symmetry_multiplicity
 _atom_site_fract_x
 _atom_site_fract_y
 _atom_site_fract_z
 _atom_site_occupancy
  Li  Li0  1  0.74813765  0.74813765  1.00000000  1
  Mn  Mn1  1  0.12791204  0.12791204  1.00000000  1
  P  P2  1  0.26289380  0.66296726  0.59054778  1
  P  P3  1  0.66296726  0.26289380  0.40945222  1
  O  O4  1  0.82897234  0.36372233  0.19826181  1
  O  O5  1  0.07398466  0.82103562  0.28309583  1
  O  O6  1  0.82103562  0.07398466  0.71690417  1
  O  O7  1  0.12467097  0.45909727  0.73566710  1
  O  O8  1  0.45909727  0.12467097  0.26433290  1
  O  O9  1  0.36372233  0.82897234  0.80173819  1
  O  O10  1  0.52145606  0.52145606  0.50000000  1
