# generated using pymatgen
data_S2O5F2
_symmetry_space_group_name_H-M   'P 1'
_cell_length_a   7.80173735
_cell_length_b   7.80173735
_cell_length_c   9.67423012
_cell_angle_alpha   90.00000000
_cell_angle_beta   90.00000000
_cell_angle_gamma   90.00000000
_symmetry_Int_Tables_number   1
_chemical_formula_structural   S2O5F2
_chemical_formula_sum   'S8 O20 F8'
_cell_volume   588.84238707
_cell_formula_units_Z   4
loop_
 _symmetry_equiv_pos_site_id
 _symmetry_equiv_pos_as_xyz
  1  'x, y, z'
loop_
 _atom_site_type_symbol
 _atom_site_label
 _atom_site_symmetry_multiplicity
 _atom_site_fract_x
 _atom_site_fract_y
 _atom_site_fract_z
 _atom_site_occupancy
  O  O0  1  0.52148394  0.79482360  0.51579580  1
  O  O1  1  0.39033732  0.71229675  0.74421121  1
  O  O2  1  0.21229675  0.89033732  0.24421121  1
  O  O3  1  0.71229675  0.60966268  0.25578879  1
  O  O4  1  0.28770325  0.39033732  0.25578879  1
  O  O5  1  0.89033732  0.78770325  0.75578879  1
  O  O6  1  0.10966268  0.21229675  0.75578879  1
  O  O7  1  0.78770325  0.10966268  0.24421121  1
  O  O8  1  0.50000000  0.00000000  0.21623419  1
  O  O9  1  0.00000000  0.50000000  0.78376581  1
  O  O10  1  0.00000000  0.50000000  0.28376581  1
  O  O11  1  0.50000000  0.00000000  0.71623419  1
  O  O12  1  0.70517640  0.97851606  0.01579580  1
  O  O13  1  0.47851606  0.20517640  0.51579580  1
  O  O14  1  0.02148394  0.70517640  0.98420420  1
  O  O15  1  0.20517640  0.52148394  0.48420420  1
  O  O16  1  0.79482360  0.47851606  0.48420420  1
  O  O17  1  0.29482360  0.02148394  0.01579580  1
  O  O18  1  0.97851606  0.29482360  0.98420420  1
  O  O19  1  0.60966268  0.28770325  0.74421121  1
  F  F20  1  0.59178455  0.25230583  0.08828364  1
  F  F21  1  0.25230583  0.40821545  0.91171636  1
  F  F22  1  0.74769417  0.59178455  0.91171636  1
  F  F23  1  0.09178455  0.24769417  0.41171636  1
  F  F24  1  0.90821545  0.75230583  0.41171636  1
  F  F25  1  0.40821545  0.74769417  0.08828364  1
  F  F26  1  0.24769417  0.90821545  0.58828364  1
  F  F27  1  0.75230583  0.09178455  0.58828364  1
  S  S28  1  0.57628101  0.17005005  0.63610176  1
  S  S29  1  0.42371899  0.82994995  0.63610176  1
  S  S30  1  0.32994995  0.92371899  0.13610176  1
  S  S31  1  0.82994995  0.57628101  0.36389824  1
  S  S32  1  0.17005005  0.42371899  0.36389824  1
  S  S33  1  0.92371899  0.67005005  0.86389824  1
  S  S34  1  0.07628101  0.32994995  0.86389824  1
  S  S35  1  0.67005005  0.07628101  0.13610176  1
