# generated using pymatgen
data_Mn(GaSe2)2
_symmetry_space_group_name_H-M   'P 1'
_cell_length_a   5.71620018
_cell_length_b   5.71620018
_cell_length_c   6.81400587
_cell_angle_alpha   114.79954742
_cell_angle_beta   114.79954736
_cell_angle_gamma   89.99999997
_symmetry_Int_Tables_number   1
_chemical_formula_structural   Mn(GaSe2)2
_chemical_formula_sum   'Mn1 Ga2 Se4'
_cell_volume   179.24583417
_cell_formula_units_Z   1
loop_
 _symmetry_equiv_pos_site_id
 _symmetry_equiv_pos_as_xyz
  1  'x, y, z'
loop_
 _atom_site_type_symbol
 _atom_site_label
 _atom_site_symmetry_multiplicity
 _atom_site_fract_x
 _atom_site_fract_y
 _atom_site_fract_z
 _atom_site_occupancy
  Mn  Mn0  1  0.00000000  0.00000000  0.00000000  1
  Ga  Ga1  1  0.50000000  0.50000000  0.00000000  1
  Ga  Ga2  1  0.25000000  0.75000000  0.50000000  1
  Se  Se3  1  0.40039310  0.38100070  0.26788937  1
  Se  Se4  1  0.11311133  0.59960690  0.73211063  1
  Se  Se5  1  0.61899930  0.13250373  0.73211063  1
  Se  Se6  1  0.86749627  0.88688867  0.26788937  1
