# generated using pymatgen
data_Y2Ge2O7
_symmetry_space_group_name_H-M   'P 1'
_cell_length_a   6.88764174
_cell_length_b   6.88764174
_cell_length_c   12.54373785
_cell_angle_alpha   90.00000000
_cell_angle_beta   90.00000000
_cell_angle_gamma   90.00000000
_symmetry_Int_Tables_number   1
_chemical_formula_structural   Y2Ge2O7
_chemical_formula_sum   'Y8 Ge8 O28'
_cell_volume   595.07001572
_cell_formula_units_Z   4
loop_
 _symmetry_equiv_pos_site_id
 _symmetry_equiv_pos_as_xyz
  1  'x, y, z'
loop_
 _atom_site_type_symbol
 _atom_site_label
 _atom_site_symmetry_multiplicity
 _atom_site_fract_x
 _atom_site_fract_y
 _atom_site_fract_z
 _atom_site_occupancy
  O  O0  1  0.14273729  0.68493239  0.04529512  1
  O  O1  1  0.85726271  0.31506761  0.54529512  1
  O  O2  1  0.68493239  0.14273729  0.95470488  1
  O  O3  1  0.18493239  0.35726271  0.29529512  1
  O  O4  1  0.81506761  0.64273729  0.79529512  1
  O  O5  1  0.35726271  0.18493239  0.70470488  1
  O  O6  1  0.64273729  0.81506761  0.20470488  1
  O  O7  1  0.31506761  0.85726271  0.45470488  1
  O  O8  1  0.33823920  0.06399280  0.07123012  1
  O  O9  1  0.66176080  0.93600720  0.57123012  1
  O  O10  1  0.06399280  0.33823920  0.92876988  1
  O  O11  1  0.56399280  0.16176080  0.32123012  1
  O  O12  1  0.43600720  0.83823920  0.82123012  1
  O  O13  1  0.16176080  0.56399280  0.67876988  1
  O  O14  1  0.83823920  0.43600720  0.17876988  1
  O  O15  1  0.93600720  0.66176080  0.42876988  1
  O  O16  1  0.19637127  0.80362873  0.25000000  1
  O  O17  1  0.69637127  0.69637127  0.00000000  1
  O  O18  1  0.30362873  0.30362873  0.50000000  1
  O  O19  1  0.80362873  0.19637127  0.75000000  1
  O  O20  1  0.92146409  0.03069033  0.37623059  1
  O  O21  1  0.46930967  0.42146409  0.12623059  1
  O  O22  1  0.53069033  0.57853591  0.62623059  1
  O  O23  1  0.42146409  0.46930967  0.87376941  1
  O  O24  1  0.57853591  0.53069033  0.37376941  1
  O  O25  1  0.07853591  0.96930967  0.87623059  1
  O  O26  1  0.03069033  0.92146409  0.62376941  1
  O  O27  1  0.96930967  0.07853591  0.12376941  1
  Ge  Ge28  1  0.15253346  0.90130894  0.11963938  1
  Ge  Ge29  1  0.84746654  0.09869106  0.61963938  1
  Ge  Ge30  1  0.90130894  0.15253346  0.88036062  1
  Ge  Ge31  1  0.40130894  0.34746654  0.36963938  1
  Ge  Ge32  1  0.59869106  0.65253346  0.86963938  1
  Ge  Ge33  1  0.34746654  0.40130894  0.63036062  1
  Ge  Ge34  1  0.65253346  0.59869106  0.13036062  1
  Ge  Ge35  1  0.09869106  0.84746654  0.38036062  1
  Y  Y36  1  0.12411283  0.64770698  0.86537606  1
  Y  Y37  1  0.87588717  0.35229302  0.36537606  1
  Y  Y38  1  0.64770698  0.12411283  0.13462394  1
  Y  Y39  1  0.14770698  0.37588717  0.11537606  1
  Y  Y40  1  0.85229302  0.62411283  0.61537606  1
  Y  Y41  1  0.37588717  0.14770698  0.88462394  1
  Y  Y42  1  0.62411283  0.85229302  0.38462394  1
  Y  Y43  1  0.35229302  0.87588717  0.63462394  1
