# generated using pymatgen
data_Li5Ti(SiO4)2
_symmetry_space_group_name_H-M   'P 1'
_cell_length_a   5.33271566
_cell_length_b   5.33271566
_cell_length_c   6.24773301
_cell_angle_alpha   91.43887897
_cell_angle_beta   88.56112103
_cell_angle_gamma   88.40724005
_symmetry_Int_Tables_number   1
_chemical_formula_structural   Li5Ti(SiO4)2
_chemical_formula_sum   'Li5 Ti1 Si2 O8'
_cell_volume   177.48826217
_cell_formula_units_Z   1
loop_
 _symmetry_equiv_pos_site_id
 _symmetry_equiv_pos_as_xyz
  1  'x, y, z'
loop_
 _atom_site_type_symbol
 _atom_site_label
 _atom_site_symmetry_multiplicity
 _atom_site_fract_x
 _atom_site_fract_y
 _atom_site_fract_z
 _atom_site_occupancy
  Li  Li0  1  0.16837398  0.80853641  0.48257202  1
  Li  Li1  1  0.69883671  0.69883671  0.75000000  1
  Li  Li2  1  0.32697395  0.32697395  0.25000000  1
  Li  Li3  1  0.67967111  0.67967111  0.25000000  1
  Li  Li4  1  0.80853641  0.16837398  0.01742798  1
  Ti  Ti5  1  0.32421287  0.32421287  0.75000000  1
  Si  Si6  1  0.17074867  0.81439127  0.00146320  1
  Si  Si7  1  0.81439127  0.17074867  0.49853680  1
  O  O8  1  0.30133412  0.69015430  0.76955962  1
  O  O9  1  0.30572169  0.69262644  0.20533722  1
  O  O10  1  0.12566574  0.22560018  0.51084807  1
  O  O11  1  0.79854188  0.86860970  0.49967142  1
  O  O12  1  0.22560018  0.12566574  0.98915193  1
  O  O13  1  0.86860970  0.79854188  0.00032858  1
  O  O14  1  0.69015430  0.30133412  0.73044038  1
  O  O15  1  0.69262644  0.30572169  0.29466278  1
