# generated using pymatgen
data_TaTl(GeO3)3
_symmetry_space_group_name_H-M   'P 1'
_cell_length_a   7.13363260
_cell_length_b   7.13363283
_cell_length_c   10.28601839
_cell_angle_alpha   90.00000000
_cell_angle_beta   90.00000000
_cell_angle_gamma   119.99999893
_symmetry_Int_Tables_number   1
_chemical_formula_structural   TaTl(GeO3)3
_chemical_formula_sum   'Ta2 Tl2 Ge6 O18'
_cell_volume   453.31430446
_cell_formula_units_Z   2
loop_
 _symmetry_equiv_pos_site_id
 _symmetry_equiv_pos_as_xyz
  1  'x, y, z'
loop_
 _atom_site_type_symbol
 _atom_site_label
 _atom_site_symmetry_multiplicity
 _atom_site_fract_x
 _atom_site_fract_y
 _atom_site_fract_z
 _atom_site_occupancy
  Tl  Tl0  1  0.66666700  0.33333300  0.00000000  1
  Tl  Tl1  1  0.66666700  0.33333300  0.50000000  1
  Ta  Ta2  1  0.33333300  0.66666700  0.00000000  1
  Ta  Ta3  1  0.33333300  0.66666700  0.50000000  1
  Ge  Ge4  1  0.07388542  0.28837327  0.25000000  1
  Ge  Ge5  1  0.21448785  0.92611458  0.25000000  1
  Ge  Ge6  1  0.71162673  0.78551215  0.25000000  1
  Ge  Ge7  1  0.71162673  0.92611458  0.75000000  1
  Ge  Ge8  1  0.21448785  0.28837327  0.75000000  1
  Ge  Ge9  1  0.07388542  0.78551215  0.75000000  1
  O  O10  1  0.26445948  0.19672317  0.25000000  1
  O  O11  1  0.93226369  0.73554052  0.25000000  1
  O  O12  1  0.80327683  0.06773631  0.25000000  1
  O  O13  1  0.80327683  0.73554052  0.75000000  1
  O  O14  1  0.93226369  0.19672317  0.75000000  1
  O  O15  1  0.26445948  0.06773631  0.75000000  1
  O  O16  1  0.10072749  0.43960161  0.11010572  1
  O  O17  1  0.33887411  0.89927251  0.38989428  1
  O  O18  1  0.56039839  0.66112589  0.38989428  1
  O  O19  1  0.56039839  0.66112589  0.11010572  1
  O  O20  1  0.33887411  0.89927251  0.11010572  1
  O  O21  1  0.56039839  0.89927251  0.88989428  1
  O  O22  1  0.33887411  0.43960161  0.88989428  1
  O  O23  1  0.10072749  0.66112589  0.88989428  1
  O  O24  1  0.33887411  0.43960161  0.61010572  1
  O  O25  1  0.10072749  0.66112589  0.61010572  1
  O  O26  1  0.10072749  0.43960161  0.38989428  1
  O  O27  1  0.56039839  0.89927251  0.61010572  1
