# generated using pymatgen
data_TlSbF6
_symmetry_space_group_name_H-M   'P 1'
_cell_length_a   5.31350018
_cell_length_b   5.31350018
_cell_length_c   5.31350018
_cell_angle_alpha   96.90298243
_cell_angle_beta   96.90298246
_cell_angle_gamma   96.90298237
_symmetry_Int_Tables_number   1
_chemical_formula_structural   TlSbF6
_chemical_formula_sum   'Tl1 Sb1 F6'
_cell_volume   146.46446138
_cell_formula_units_Z   1
loop_
 _symmetry_equiv_pos_site_id
 _symmetry_equiv_pos_as_xyz
  1  'x, y, z'
loop_
 _atom_site_type_symbol
 _atom_site_label
 _atom_site_symmetry_multiplicity
 _atom_site_fract_x
 _atom_site_fract_y
 _atom_site_fract_z
 _atom_site_occupancy
  F  F0  1  0.75415081  0.75415081  0.41596971  1
  F  F1  1  0.75415081  0.41596971  0.75415081  1
  F  F2  1  0.24584919  0.58403029  0.24584919  1
  F  F3  1  0.24584919  0.24584919  0.58403029  1
  F  F4  1  0.58403029  0.24584919  0.24584919  1
  F  F5  1  0.41596971  0.75415081  0.75415081  1
  Sb  Sb6  1  0.50000000  0.50000000  0.50000000  1
  Tl  Tl7  1  0.00000000  0.00000000  0.00000000  1
