# generated using pymatgen
data_Pr4Se3O4
_symmetry_space_group_name_H-M   'P 1'
_cell_length_a   4.07259238
_cell_length_b   6.88949395
_cell_length_c   8.54234117
_cell_angle_alpha   90.00000000
_cell_angle_beta   90.00000000
_cell_angle_gamma   107.19144567
_symmetry_Int_Tables_number   1
_chemical_formula_structural   Pr4Se3O4
_chemical_formula_sum   'Pr4 Se3 O4'
_cell_volume   228.97348116
_cell_formula_units_Z   1
loop_
 _symmetry_equiv_pos_site_id
 _symmetry_equiv_pos_as_xyz
  1  'x, y, z'
loop_
 _atom_site_type_symbol
 _atom_site_label
 _atom_site_symmetry_multiplicity
 _atom_site_fract_x
 _atom_site_fract_y
 _atom_site_fract_z
 _atom_site_occupancy
  O  O0  1  0.08882519  0.17765039  0.75568055  1
  O  O1  1  0.58942174  0.17884348  0.00000000  1
  O  O2  1  0.08882519  0.17765039  0.24431945  1
  O  O3  1  0.61436129  0.22872258  0.50000000  1
  Se  Se4  1  0.35599443  0.71198885  0.35115555  1
  Se  Se5  1  0.31494734  0.62989468  0.00000000  1
  Se  Se6  1  0.35599443  0.71198885  0.64884445  1
  Pr  Pr7  1  0.68398715  0.36797430  0.76198774  1
  Pr  Pr8  1  0.68398715  0.36797430  0.23801226  1
  Pr  Pr9  1  0.01638778  0.03277556  0.50000000  1
  Pr  Pr10  1  1.00194830  1.00389661  0.00000000  1
