# generated using pymatgen
data_Mg2NbN3
_symmetry_space_group_name_H-M   'P 1'
_cell_length_a   5.91785275
_cell_length_b   6.00655186
_cell_length_c   5.30461741
_cell_angle_alpha   90.00000000
_cell_angle_beta   90.00000000
_cell_angle_gamma   120.49706459
_symmetry_Int_Tables_number   1
_chemical_formula_structural   Mg2NbN3
_chemical_formula_sum   'Mg4 Nb2 N6'
_cell_volume   162.47140889
_cell_formula_units_Z   2
loop_
 _symmetry_equiv_pos_site_id
 _symmetry_equiv_pos_as_xyz
  1  'x, y, z'
loop_
 _atom_site_type_symbol
 _atom_site_label
 _atom_site_symmetry_multiplicity
 _atom_site_fract_x
 _atom_site_fract_y
 _atom_site_fract_z
 _atom_site_occupancy
  Mg  Mg0  1  0.33812173  0.33065978  0.48257609  1
  Mg  Mg1  1  0.66187827  0.99253805  0.48257609  1
  Mg  Mg2  1  0.66187827  0.66934022  0.98257609  1
  Mg  Mg3  1  0.33812173  0.00746195  0.98257609  1
  Nb  Nb4  1  -0.00000000  0.66797673  0.48152206  1
  Nb  Nb5  1  0.00000000  0.33202327  0.98152206  1
  N  N6  1  0.31255184  0.33143037  0.88217271  1
  N  N7  1  0.68744816  0.01887853  0.88217271  1
  N  N8  1  0.68744816  0.66856963  0.38217271  1
  N  N9  1  0.31255184  0.98112147  0.38217271  1
  N  N10  1  0.00000000  0.65316503  0.86098033  1
  N  N11  1  -0.00000000  0.34683497  0.36098033  1
