# generated using pymatgen
data_Li3Ti(PO4)2
_symmetry_space_group_name_H-M   'P 1'
_cell_length_a   7.97055246
_cell_length_b   5.49746773
_cell_length_c   6.25105821
_cell_angle_alpha   89.90141995
_cell_angle_beta   38.69006388
_cell_angle_gamma   69.73205610
_symmetry_Int_Tables_number   1
_chemical_formula_structural   Li3Ti(PO4)2
_chemical_formula_sum   'Li3 Ti1 P2 O8'
_cell_volume   142.77046877
_cell_formula_units_Z   1
loop_
 _symmetry_equiv_pos_site_id
 _symmetry_equiv_pos_as_xyz
  1  'x, y, z'
loop_
 _atom_site_type_symbol
 _atom_site_label
 _atom_site_symmetry_multiplicity
 _atom_site_fract_x
 _atom_site_fract_y
 _atom_site_fract_z
 _atom_site_occupancy
  Li  Li0  1  0.15851951  0.66914473  0.12082864  1
  Li  Li1  1  0.50283151  0.99939010  0.99662643  1
  Li  Li2  1  0.84357260  0.32404179  0.87849424  1
  Ti  Ti3  1  0.49936913  0.00284035  0.50189170  1
  P  P4  1  0.19915124  0.65426506  0.56959422  1
  P  P5  1  0.80198918  0.35211370  0.43366093  1
  O  O6  1  0.01367892  0.24777473  0.42088637  1
  O  O7  1  0.01072518  0.24745700  0.01914295  1
  O  O8  1  0.43216425  0.31084009  0.34080877  1
  O  O9  1  0.43045754  0.76663036  0.34111379  1
  O  O10  1  0.56968801  0.24109687  0.66205994  1
  O  O11  1  0.57042338  0.69593327  0.66184855  1
  O  O12  1  0.98955017  0.75912958  0.98453100  1
  O  O13  1  0.98903938  0.75973739  0.58001249  1
