# generated using pymatgen
data_Li4Ti3O8
_symmetry_space_group_name_H-M   'P 1'
_cell_length_a   5.90712977
_cell_length_b   5.88760143
_cell_length_c   5.90712958
_cell_angle_alpha   120.10977794
_cell_angle_beta   60.00000279
_cell_angle_gamma   120.10977633
_symmetry_Int_Tables_number   1
_chemical_formula_structural   Li4Ti3O8
_chemical_formula_sum   'Li4 Ti3 O8'
_cell_volume   145.02865176
_cell_formula_units_Z   1
loop_
 _symmetry_equiv_pos_site_id
 _symmetry_equiv_pos_as_xyz
  1  'x, y, z'
loop_
 _atom_site_type_symbol
 _atom_site_label
 _atom_site_symmetry_multiplicity
 _atom_site_fract_x
 _atom_site_fract_y
 _atom_site_fract_z
 _atom_site_occupancy
  Li  Li0  1  0.12500000  0.87500000  0.62500000  1
  Li  Li1  1  0.12500000  0.87500000  0.12500000  1
  Li  Li2  1  0.62500000  0.87500000  0.62500000  1
  Li  Li3  1  0.62500000  0.87500000  0.12500000  1
  Ti  Ti4  1  0.12500000  0.37500000  0.62500000  1
  Ti  Ti5  1  0.62500000  0.37500000  0.62500000  1
  Ti  Ti6  1  0.62500000  0.37500000  0.12500000  1
  O  O7  1  0.37908259  0.13724777  0.37908259  1
  O  O8  1  0.41119180  0.15182636  0.87031728  1
  O  O9  1  0.37968272  0.59817364  0.83880820  1
  O  O10  1  0.37968272  0.59817364  0.37968272  1
  O  O11  1  0.87031728  0.15182636  0.87031728  1
  O  O12  1  0.87031728  0.15182636  0.41119180  1
  O  O13  1  0.83880820  0.59817364  0.37968272  1
  O  O14  1  0.87091741  0.61275223  0.87091741  1
