# generated using pymatgen
data_Cd(PO3)2
_symmetry_space_group_name_H-M   'P 1'
_cell_length_a   7.57123447
_cell_length_b   7.56141042
_cell_length_c   8.68226891
_cell_angle_alpha   90.00000000
_cell_angle_beta   90.00000000
_cell_angle_gamma   90.00000000
_symmetry_Int_Tables_number   1
_chemical_formula_structural   Cd(PO3)2
_chemical_formula_sum   'Cd4 P8 O24'
_cell_volume   497.05304664
_cell_formula_units_Z   4
loop_
 _symmetry_equiv_pos_site_id
 _symmetry_equiv_pos_as_xyz
  1  'x, y, z'
loop_
 _atom_site_type_symbol
 _atom_site_label
 _atom_site_symmetry_multiplicity
 _atom_site_fract_x
 _atom_site_fract_y
 _atom_site_fract_z
 _atom_site_occupancy
  Cd  Cd0  1  0.85769652  0.98097401  0.78661825  1
  Cd  Cd1  1  0.35769652  0.01902599  0.71338175  1
  Cd  Cd2  1  0.64230348  0.48097401  0.21338175  1
  Cd  Cd3  1  0.14230348  0.51902599  0.28661825  1
  P  P4  1  0.93932706  0.12124407  0.15681387  1
  P  P5  1  0.56067294  0.62124407  0.84318613  1
  P  P6  1  0.06067294  0.37875593  0.65681387  1
  P  P7  1  0.83805655  0.84636412  0.40015067  1
  P  P8  1  0.43932706  0.87875593  0.34318613  1
  P  P9  1  0.66194345  0.34636412  0.59984933  1
  P  P10  1  0.16194345  0.65363588  0.90015067  1
  P  P11  1  0.33805655  0.15363588  0.09984933  1
  O  O12  1  0.90310677  0.84788653  0.56180194  1
  O  O13  1  0.31917433  0.95094819  0.46506856  1
  O  O14  1  0.35740534  0.32558480  0.18742084  1
  O  O15  1  0.18082567  0.45094819  0.53493144  1
  O  O16  1  0.14259466  0.82558480  0.81257916  1
  O  O17  1  0.56411483  0.50419277  0.68905016  1
  O  O18  1  0.13732482  0.08804568  0.10126062  1
  O  O19  1  0.93588517  0.00419277  0.31094984  1
  O  O20  1  0.06411483  0.49580723  0.81094984  1
  O  O21  1  0.68082567  0.54905181  0.96506856  1
  O  O22  1  0.41608360  0.68788194  0.29410565  1
  O  O23  1  0.81917433  0.04905181  0.03493144  1
  O  O24  1  0.40310677  0.15211347  0.93819806  1
  O  O25  1  0.58391640  0.81211806  0.79410565  1
  O  O26  1  0.64259466  0.17441520  0.68742084  1
  O  O27  1  0.43588517  0.99580723  0.18905016  1
  O  O28  1  0.59689323  0.34788653  0.43819806  1
  O  O29  1  0.85740534  0.67441520  0.31257916  1
  O  O30  1  0.86267518  0.41195432  0.60126062  1
  O  O31  1  0.08391640  0.18788194  0.70589435  1
  O  O32  1  0.91608360  0.31211806  0.20589435  1
  O  O33  1  0.36267518  0.58804568  0.89873938  1
  O  O34  1  0.09689323  0.65211347  0.06180194  1
  O  O35  1  0.63732482  0.91195432  0.39873938  1
