# generated using pymatgen
data_Rb2CoBr4
_symmetry_space_group_name_H-M   'P 1'
_cell_length_a   7.73608643
_cell_length_b   9.89200472
_cell_length_c   13.62155211
_cell_angle_alpha   90.00000000
_cell_angle_beta   90.00000000
_cell_angle_gamma   90.00000000
_symmetry_Int_Tables_number   1
_chemical_formula_structural   Rb2CoBr4
_chemical_formula_sum   'Rb8 Co4 Br16'
_cell_volume   1042.39477124
_cell_formula_units_Z   4
loop_
 _symmetry_equiv_pos_site_id
 _symmetry_equiv_pos_as_xyz
  1  'x, y, z'
loop_
 _atom_site_type_symbol
 _atom_site_label
 _atom_site_symmetry_multiplicity
 _atom_site_fract_x
 _atom_site_fract_y
 _atom_site_fract_z
 _atom_site_occupancy
  Co  Co0  1  0.25000000  0.22673476  0.42347355  1
  Co  Co1  1  0.25000000  0.72673476  0.07652645  1
  Co  Co2  1  0.75000000  0.27326524  0.92347355  1
  Co  Co3  1  0.75000000  0.77326524  0.57652645  1
  Br  Br4  1  0.50129711  0.81637079  0.15558422  1
  Br  Br5  1  0.00129711  0.18362921  0.84441578  1
  Br  Br6  1  0.99870289  0.31637079  0.34441578  1
  Br  Br7  1  0.49870289  0.68362921  0.65558422  1
  Br  Br8  1  0.50129711  0.31637079  0.34441578  1
  Br  Br9  1  0.49870289  0.18362921  0.84441578  1
  Br  Br10  1  0.00129711  0.68362921  0.65558422  1
  Br  Br11  1  0.99870289  0.81637079  0.15558422  1
  Br  Br12  1  0.75000000  0.01485331  0.58673398  1
  Br  Br13  1  0.25000000  0.98514669  0.41326602  1
  Br  Br14  1  0.75000000  0.51485331  0.91326602  1
  Br  Br15  1  0.25000000  0.48514669  0.08673398  1
  Br  Br16  1  0.75000000  0.68088858  0.41304247  1
  Br  Br17  1  0.25000000  0.31911142  0.58695753  1
  Br  Br18  1  0.75000000  0.18088858  0.08695753  1
  Br  Br19  1  0.25000000  0.81911142  0.91304247  1
  Rb  Rb20  1  0.25000000  0.12638055  0.09184133  1
  Rb  Rb21  1  0.75000000  0.87361945  0.90815867  1
  Rb  Rb22  1  0.25000000  0.62638055  0.40815867  1
  Rb  Rb23  1  0.75000000  0.37361945  0.59184133  1
  Rb  Rb24  1  0.25000000  0.48540079  0.82873737  1
  Rb  Rb25  1  0.75000000  0.51459921  0.17126263  1
  Rb  Rb26  1  0.25000000  0.98540079  0.67126263  1
  Rb  Rb27  1  0.75000000  0.01459921  0.32873737  1
