# generated using pymatgen
data_KLaGeSe4
_symmetry_space_group_name_H-M   'P 1'
_cell_length_a   6.99967186
_cell_length_b   7.12578442
_cell_length_c   9.20113737
_cell_angle_alpha   90.00000000
_cell_angle_beta   107.63517824
_cell_angle_gamma   90.00000000
_symmetry_Int_Tables_number   1
_chemical_formula_structural   KLaGeSe4
_chemical_formula_sum   'K2 La2 Ge2 Se8'
_cell_volume   437.36797661
_cell_formula_units_Z   2
loop_
 _symmetry_equiv_pos_site_id
 _symmetry_equiv_pos_as_xyz
  1  'x, y, z'
loop_
 _atom_site_type_symbol
 _atom_site_label
 _atom_site_symmetry_multiplicity
 _atom_site_fract_x
 _atom_site_fract_y
 _atom_site_fract_z
 _atom_site_occupancy
  K  K0  1  0.74196073  0.50834228  0.93662571  1
  K  K1  1  0.25803927  0.00834228  0.06337429  1
  Ge  Ge2  1  0.21740967  0.52906964  0.31716927  1
  Ge  Ge3  1  0.78259033  0.02906964  0.68283073  1
  Se  Se4  1  0.58167832  0.08226662  0.42542579  1
  Se  Se5  1  0.41832168  0.58226662  0.57457421  1
  Se  Se6  1  0.01258097  0.25516163  0.28360511  1
  Se  Se7  1  0.98741903  0.75516163  0.71639489  1
  Se  Se8  1  0.02892647  0.27214061  0.73052197  1
  Se  Se9  1  0.97107353  0.77214061  0.26947803  1
  Se  Se10  1  0.41793725  0.53257425  0.15318717  1
  Se  Se11  1  0.58206275  0.03257425  0.84681283  1
  La  La12  1  0.76689599  0.49706497  0.44586602  1
  La  La13  1  0.23310401  0.99706497  0.55413398  1
