# generated using pymatgen
data_K6HgS4
_symmetry_space_group_name_H-M   'P 1'
_cell_length_a   10.10284757
_cell_length_b   10.10284758
_cell_length_c   7.79280725
_cell_angle_alpha   90.00000000
_cell_angle_beta   90.00000000
_cell_angle_gamma   120.00000001
_symmetry_Int_Tables_number   1
_chemical_formula_structural   K6HgS4
_chemical_formula_sum   'K12 Hg2 S8'
_cell_volume   688.83018070
_cell_formula_units_Z   2
loop_
 _symmetry_equiv_pos_site_id
 _symmetry_equiv_pos_as_xyz
  1  'x, y, z'
loop_
 _atom_site_type_symbol
 _atom_site_label
 _atom_site_symmetry_multiplicity
 _atom_site_fract_x
 _atom_site_fract_y
 _atom_site_fract_z
 _atom_site_occupancy
  S  S0  1  0.18950907  0.37901814  0.39807307  1
  S  S1  1  0.81049093  0.18950907  0.89807307  1
  S  S2  1  0.18950907  0.81049093  0.39807307  1
  S  S3  1  0.81049093  0.62098186  0.89807307  1
  S  S4  1  0.66666667  0.33333333  0.34455120  1
  S  S5  1  0.33333333  0.66666667  0.84455120  1
  S  S6  1  0.37901814  0.18950907  0.89807307  1
  S  S7  1  0.62098186  0.81049093  0.39807307  1
  K  K8  1  0.85137225  0.70274451  0.29160327  1
  K  K9  1  0.53029670  0.06059340  0.62393081  1
  K  K10  1  0.06059340  0.53029670  0.12393081  1
  K  K11  1  0.93940660  0.46970330  0.62393081  1
  K  K12  1  0.53029670  0.46970330  0.62393081  1
  K  K13  1  0.46970330  0.93940660  0.12393081  1
  K  K14  1  0.70274451  0.85137225  0.79160327  1
  K  K15  1  0.29725549  0.14862775  0.29160327  1
  K  K16  1  0.85137225  0.14862775  0.29160327  1
  K  K17  1  0.14862775  0.29725549  0.79160327  1
  K  K18  1  0.46970330  0.53029670  0.12393081  1
  K  K19  1  0.14862775  0.85137225  0.79160327  1
  Hg  Hg20  1  0.66666667  0.33333333  0.00262737  1
  Hg  Hg21  1  0.33333333  0.66666667  0.50262737  1
