# generated using pymatgen
data_Dy3CuSnSe7
_symmetry_space_group_name_H-M   'P 1'
_cell_length_a   10.22536403
_cell_length_b   10.22536412
_cell_length_c   6.51928873
_cell_angle_alpha   90.00000000
_cell_angle_beta   90.00000000
_cell_angle_gamma   119.99999968
_symmetry_Int_Tables_number   1
_chemical_formula_structural   Dy3CuSnSe7
_chemical_formula_sum   'Dy6 Cu2 Sn2 Se14'
_cell_volume   590.32123915
_cell_formula_units_Z   2
loop_
 _symmetry_equiv_pos_site_id
 _symmetry_equiv_pos_as_xyz
  1  'x, y, z'
loop_
 _atom_site_type_symbol
 _atom_site_label
 _atom_site_symmetry_multiplicity
 _atom_site_fract_x
 _atom_site_fract_y
 _atom_site_fract_z
 _atom_site_occupancy
  Dy  Dy0  1  0.35754834  0.15442224  0.39320979  1
  Dy  Dy1  1  0.20312609  0.35754834  0.89320979  1
  Dy  Dy2  1  0.15442224  0.79687391  0.89320979  1
  Dy  Dy3  1  0.84557776  0.20312609  0.39320979  1
  Dy  Dy4  1  0.79687391  0.64245166  0.39320979  1
  Dy  Dy5  1  0.64245166  0.84557776  0.89320979  1
  Cu  Cu6  1  0.00000000  0.00000000  0.99925574  1
  Cu  Cu7  1  0.00000000  0.00000000  0.49925574  1
  Sn  Sn8  1  0.33333300  0.66666700  0.32185199  1
  Sn  Sn9  1  0.66666700  0.33333300  0.82185199  1
  Se  Se10  1  0.26520897  0.11879164  0.96857778  1
  Se  Se11  1  0.14641733  0.26520897  0.46857778  1
  Se  Se12  1  0.11879164  0.85358267  0.46857778  1
  Se  Se13  1  0.88120836  0.14641733  0.96857778  1
  Se  Se14  1  0.85358267  0.73479103  0.96857778  1
  Se  Se15  1  0.73479103  0.88120836  0.46857778  1
  Se  Se16  1  0.52008857  0.44204881  0.63857604  1
  Se  Se17  1  0.07803976  0.52008857  0.13857604  1
  Se  Se18  1  0.44204881  0.92196024  0.13857604  1
  Se  Se19  1  0.55795119  0.07803976  0.63857604  1
  Se  Se20  1  0.92196024  0.47991143  0.63857604  1
  Se  Se21  1  0.47991143  0.55795119  0.13857604  1
  Se  Se22  1  0.33333300  0.66666700  0.71420142  1
  Se  Se23  1  0.66666700  0.33333300  0.21420142  1
