# generated using pymatgen
data_Cu2HgGeS4
_symmetry_space_group_name_H-M   'P 1'
_cell_length_a   6.36543018
_cell_length_b   6.58449977
_cell_length_c   7.79934294
_cell_angle_alpha   90.00000000
_cell_angle_beta   90.00000000
_cell_angle_gamma   90.00000000
_symmetry_Int_Tables_number   1
_chemical_formula_structural   Cu2HgGeS4
_chemical_formula_sum   'Cu4 Hg2 Ge2 S8'
_cell_volume   326.89521427
_cell_formula_units_Z   2
loop_
 _symmetry_equiv_pos_site_id
 _symmetry_equiv_pos_as_xyz
  1  'x, y, z'
loop_
 _atom_site_type_symbol
 _atom_site_label
 _atom_site_symmetry_multiplicity
 _atom_site_fract_x
 _atom_site_fract_y
 _atom_site_fract_z
 _atom_site_occupancy
  Cu  Cu0  1  0.02220919  0.16746249  0.74943633  1
  Cu  Cu1  1  0.52220919  0.83253751  0.75056367  1
  Cu  Cu2  1  0.02220919  0.16746249  0.25056367  1
  Cu  Cu3  1  0.52220919  0.83253751  0.24943633  1
  Hg  Hg4  1  0.52611525  0.34985864  0.00000000  1
  Hg  Hg5  1  0.02611525  0.65014136  0.50000000  1
  Ge  Ge6  1  0.01795095  0.67364418  0.00000000  1
  Ge  Ge7  1  0.51795095  0.32635582  0.50000000  1
  S  S8  1  0.38374829  0.15808266  0.27023713  1
  S  S9  1  0.88374829  0.84191734  0.77023713  1
  S  S10  1  0.38374829  0.15808266  0.72976287  1
  S  S11  1  0.93147239  0.33682930  0.00000000  1
  S  S12  1  0.43147239  0.66317070  0.50000000  1
  S  S13  1  0.87454646  0.28592689  0.50000000  1
  S  S14  1  0.37454646  0.71407311  0.00000000  1
  S  S15  1  0.88374829  0.84191734  0.22976287  1
