# generated using pymatgen
data_Te2MoWSeS
_symmetry_space_group_name_H-M   'P 1'
_cell_length_a   3.39473085
_cell_length_b   3.39475553
_cell_length_c   38.83412197
_cell_angle_alpha   89.99968429
_cell_angle_beta   90.00000000
_cell_angle_gamma   119.99975938
_symmetry_Int_Tables_number   1
_chemical_formula_structural   Te2MoWSeS
_chemical_formula_sum   'Te4 Mo2 W2 Se2 S2'
_cell_volume   387.57791941
_cell_formula_units_Z   2
loop_
 _symmetry_equiv_pos_site_id
 _symmetry_equiv_pos_as_xyz
  1  'x, y, z'
loop_
 _atom_site_type_symbol
 _atom_site_label
 _atom_site_symmetry_multiplicity
 _atom_site_fract_x
 _atom_site_fract_y
 _atom_site_fract_z
 _atom_site_occupancy
  Te  Te0  1  0.33335426  0.66670952  0.70614773  1
  Te  Te1  1  0.66664564  0.33329027  0.42131654  1
  Te  Te2  1  0.66664410  0.33328721  0.51785102  1
  Te  Te3  1  0.33335291  0.66670682  0.60907597  1
  Mo  Mo4  1  0.33331592  0.66663184  0.46958099  1
  Mo  Mo5  1  0.66668878  0.33337756  0.28178461  1
  W  W6  1  0.33331216  0.66662433  0.09393123  1
  W  W7  1  0.66669134  0.33338269  0.65764730  1
  Se  Se8  1  0.33335224  0.66670548  0.32432030  1
  Se  Se9  1  0.33335131  0.66670362  0.23922946  1
  S  S10  1  0.66664975  0.33329849  0.05510226  1
  S  S11  1  0.66664159  0.33328217  0.13276058  1
