# generated using pymatgen
data_NaCdPO4
_symmetry_space_group_name_H-M   'P 1'
_cell_length_a   5.11992846
_cell_length_b   6.61131648
_cell_length_c   11.03060079
_cell_angle_alpha   90.00000000
_cell_angle_beta   90.00000000
_cell_angle_gamma   90.00000000
_symmetry_Int_Tables_number   1
_chemical_formula_structural   NaCdPO4
_chemical_formula_sum   'Na4 Cd4 P4 O16'
_cell_volume   373.37996189
_cell_formula_units_Z   4
loop_
 _symmetry_equiv_pos_site_id
 _symmetry_equiv_pos_as_xyz
  1  'x, y, z'
loop_
 _atom_site_type_symbol
 _atom_site_label
 _atom_site_symmetry_multiplicity
 _atom_site_fract_x
 _atom_site_fract_y
 _atom_site_fract_z
 _atom_site_occupancy
  O  O0  1  0.19201044  0.56234262  0.17015155  1
  O  O1  1  0.80798956  0.06234262  0.82984845  1
  O  O2  1  0.30798956  0.56234262  0.67015155  1
  O  O3  1  0.69201044  0.06234262  0.32984845  1
  O  O4  1  0.32500224  0.74955835  0.47097063  1
  O  O5  1  0.67499776  0.24955835  0.52902937  1
  O  O6  1  0.17499776  0.74955835  0.97097063  1
  O  O7  1  0.82500224  0.24955835  0.02902937  1
  O  O8  1  0.80799103  0.43704906  0.82992748  1
  O  O9  1  0.19200897  0.93704906  0.17007252  1
  O  O10  1  0.69200897  0.43704906  0.32992748  1
  O  O11  1  0.30799103  0.93704906  0.67007252  1
  O  O12  1  0.26655022  0.24960818  0.39368985  1
  O  O13  1  0.73344978  0.74960818  0.60631015  1
  O  O14  1  0.23344978  0.24960818  0.89368985  1
  O  O15  1  0.76655022  0.74960818  0.10631015  1
  Na  Na16  1  0.00022667  0.49919002  0.50022594  1
  Na  Na17  1  0.99977333  0.99919002  0.49977406  1
  Na  Na18  1  0.50022667  0.99919002  0.99977406  1
  Na  Na19  1  0.49977333  0.49919002  0.00022594  1
  P  P20  1  0.06835368  0.74966608  0.10325838  1
  P  P21  1  0.43164632  0.74966608  0.60325838  1
  P  P22  1  0.93164632  0.24966608  0.89674162  1
  P  P23  1  0.56835368  0.24966608  0.39674162  1
  Cd  Cd24  1  0.51538854  0.74968569  0.28570247  1
  Cd  Cd25  1  0.48461146  0.24968569  0.71429753  1
  Cd  Cd26  1  0.98461146  0.74968569  0.78570247  1
  Cd  Cd27  1  0.01538854  0.24968569  0.21429753  1
