# generated using pymatgen
data_NaMnCl3
_symmetry_space_group_name_H-M   'P 1'
_cell_length_a   7.36386385
_cell_length_b   7.36386385
_cell_length_c   7.36386385
_cell_angle_alpha   53.63794607
_cell_angle_beta   53.63794610
_cell_angle_gamma   53.63794609
_symmetry_Int_Tables_number   1
_chemical_formula_structural   NaMnCl3
_chemical_formula_sum   'Na2 Mn2 Cl6'
_cell_volume   240.34549599
_cell_formula_units_Z   2
loop_
 _symmetry_equiv_pos_site_id
 _symmetry_equiv_pos_as_xyz
  1  'x, y, z'
loop_
 _atom_site_type_symbol
 _atom_site_label
 _atom_site_symmetry_multiplicity
 _atom_site_fract_x
 _atom_site_fract_y
 _atom_site_fract_z
 _atom_site_occupancy
  Na  Na0  1  0.85476812  0.85476812  0.85476812  1
  Na  Na1  1  0.14523188  0.14523188  0.14523188  1
  Cl  Cl2  1  0.93381018  0.54849661  0.28764726  1
  Cl  Cl3  1  0.28764726  0.93381018  0.54849661  1
  Cl  Cl4  1  0.45150339  0.71235274  0.06618982  1
  Cl  Cl5  1  0.06618982  0.45150339  0.71235274  1
  Cl  Cl6  1  0.71235274  0.06618982  0.45150339  1
  Cl  Cl7  1  0.54849661  0.28764726  0.93381018  1
  Mn  Mn8  1  0.65962709  0.65962709  0.65962709  1
  Mn  Mn9  1  0.34037291  0.34037291  0.34037291  1
