# generated using pymatgen
data_P4Ru
_symmetry_space_group_name_H-M   'P 1'
_cell_length_a   4.74580547
_cell_length_b   7.20179086
_cell_length_c   7.57953230
_cell_angle_alpha   111.19389094
_cell_angle_beta   90.36261889
_cell_angle_gamma   100.43713593
_symmetry_Int_Tables_number   1
_chemical_formula_structural   P4Ru
_chemical_formula_sum   'P12 Ru3'
_cell_volume   236.80746488
_cell_formula_units_Z   3
loop_
 _symmetry_equiv_pos_site_id
 _symmetry_equiv_pos_as_xyz
  1  'x, y, z'
loop_
 _atom_site_type_symbol
 _atom_site_label
 _atom_site_symmetry_multiplicity
 _atom_site_fract_x
 _atom_site_fract_y
 _atom_site_fract_z
 _atom_site_occupancy
  P  P0  1  0.60853045  0.83137691  0.76856203  1
  P  P1  1  0.39146955  0.16862309  0.23143797  1
  P  P2  1  0.79466739  0.29596604  0.12462576  1
  P  P3  1  0.59869898  0.36818504  0.90076363  1
  P  P4  1  0.40130102  0.63181496  0.09923637  1
  P  P5  1  0.17763788  0.16224473  0.78550091  1
  P  P6  1  0.82236212  0.83775527  0.21449909  1
  P  P7  1  0.27261401  0.42734524  0.45134740  1
  P  P8  1  0.72738599  0.57265476  0.54865260  1
  P  P9  1  0.65927809  0.08591802  0.43735223  1
  P  P10  1  0.34072191  0.91408198  0.56264777  1
  P  P11  1  0.20533261  0.70403396  0.87537424  1
  Ru  Ru12  1  0.05848578  0.62655715  0.32846233  1
  Ru  Ru13  1  0.94151422  0.37344285  0.67153767  1
  Ru  Ru14  1  0.00000000  0.00000000  0.00000000  1
