# generated using pymatgen
data_Ca(GdS2)2
_symmetry_space_group_name_H-M   'P 1'
_cell_length_a   7.30841489
_cell_length_b   7.30841498
_cell_length_c   7.30841461
_cell_angle_alpha   109.50831713
_cell_angle_beta   109.50831092
_cell_angle_gamma   109.39705834
_symmetry_Int_Tables_number   1
_chemical_formula_structural   Ca(GdS2)2
_chemical_formula_sum   'Ca2 Gd4 S8'
_cell_volume   300.50184230
_cell_formula_units_Z   2
loop_
 _symmetry_equiv_pos_site_id
 _symmetry_equiv_pos_as_xyz
  1  'x, y, z'
loop_
 _atom_site_type_symbol
 _atom_site_label
 _atom_site_symmetry_multiplicity
 _atom_site_fract_x
 _atom_site_fract_y
 _atom_site_fract_z
 _atom_site_occupancy
  Ca  Ca0  1  0.62500000  0.37500000  0.25000000  1
  Ca  Ca1  1  0.87500000  0.12500000  0.75000000  1
  Gd  Gd2  1  0.12191279  0.75000000  0.87191279  1
  Gd  Gd3  1  0.25000000  0.62191279  0.37191279  1
  Gd  Gd4  1  0.37808721  0.25000000  0.62808721  1
  Gd  Gd5  1  0.75000000  0.87808721  0.12808721  1
  S  S6  1  0.00564642  0.86042269  0.50034983  1
  S  S7  1  0.49435358  0.99470340  0.85477627  1
  S  S8  1  0.13957731  0.13992713  0.14522373  1
  S  S9  1  0.36042269  0.50564642  0.00034983  1
  S  S10  1  0.63992713  0.63957731  0.64522373  1
  S  S11  1  0.49470340  0.99435358  0.35477627  1
  S  S12  1  0.86007287  0.50529660  0.99965017  1
  S  S13  1  0.00529660  0.36007287  0.49965017  1
