# generated using pymatgen
data_K2ReH9
_symmetry_space_group_name_H-M   'P 1'
_cell_length_a   9.59676685
_cell_length_b   9.59676684
_cell_length_c   5.60728706
_cell_angle_alpha   90.00000000
_cell_angle_beta   90.00000000
_cell_angle_gamma   119.99999999
_symmetry_Int_Tables_number   1
_chemical_formula_structural   K2ReH9
_chemical_formula_sum   'K6 Re3 H27'
_cell_volume   447.23245193
_cell_formula_units_Z   3
loop_
 _symmetry_equiv_pos_site_id
 _symmetry_equiv_pos_as_xyz
  1  'x, y, z'
loop_
 _atom_site_type_symbol
 _atom_site_label
 _atom_site_symmetry_multiplicity
 _atom_site_fract_x
 _atom_site_fract_y
 _atom_site_fract_z
 _atom_site_occupancy
  H  H0  1  0.77617456  0.30805007  0.71993632  1
  H  H1  1  0.69194993  0.46812449  0.71993632  1
  H  H2  1  0.53187551  0.22382544  0.71993632  1
  H  H3  1  0.22382544  0.53187551  0.28006368  1
  H  H4  1  0.53187551  0.22382544  0.28006368  1
  H  H5  1  0.77617456  0.30805007  0.28006368  1
  H  H6  1  0.69194993  0.46812449  0.28006368  1
  H  H7  1  0.30805007  0.77617456  0.71993632  1
  H  H8  1  0.46812449  0.69194993  0.71993632  1
  H  H9  1  0.17572500  0.00000000  0.00000000  1
  H  H10  1  0.82427500  0.82427500  0.00000000  1
  H  H11  1  0.00000000  0.17572500  0.00000000  1
  H  H12  1  0.87292900  0.00000000  0.21350955  1
  H  H13  1  0.12707100  0.12707100  0.78649045  1
  H  H14  1  0.00000000  0.87292900  0.78649045  1
  H  H15  1  0.00000000  0.87292900  0.21350955  1
  H  H16  1  0.12707100  0.12707100  0.21350955  1
  H  H17  1  0.87292900  0.00000000  0.78649045  1
  H  H18  1  0.14288628  0.63148581  0.50000000  1
  H  H19  1  0.48859953  0.85711372  0.50000000  1
  H  H20  1  0.36851419  0.51140047  0.50000000  1
  H  H21  1  0.51140047  0.36851419  0.50000000  1
  H  H22  1  0.85711372  0.48859953  0.50000000  1
  H  H23  1  0.63148581  0.14288628  0.50000000  1
  H  H24  1  0.22382544  0.53187551  0.71993632  1
  H  H25  1  0.30805007  0.77617456  0.28006368  1
  H  H26  1  0.46812449  0.69194993  0.28006368  1
  K  K27  1  0.00000000  0.26155897  0.50000000  1
  K  K28  1  0.73844103  0.73844103  0.50000000  1
  K  K29  1  0.26155897  0.00000000  0.50000000  1
  K  K30  1  0.00000000  0.58886248  0.00000000  1
  K  K31  1  0.41113752  0.41113752  0.00000000  1
  K  K32  1  0.58886248  0.00000000  0.00000000  1
  Re  Re33  1  0.66666667  0.33333333  0.50000000  1
  Re  Re34  1  0.33333333  0.66666667  0.50000000  1
  Re  Re35  1  0.00000000  0.00000000  0.00000000  1
