# generated using pymatgen
data_Mg(NO3)2
_symmetry_space_group_name_H-M   'P 1'
_cell_length_a   7.63794835
_cell_length_b   7.63776169
_cell_length_c   7.63758946
_cell_angle_alpha   90.00243064
_cell_angle_beta   89.99540112
_cell_angle_gamma   89.99274732
_symmetry_Int_Tables_number   1
_chemical_formula_structural   Mg(NO3)2
_chemical_formula_sum   'Mg4 N8 O24'
_cell_volume   445.55274696
_cell_formula_units_Z   4
loop_
 _symmetry_equiv_pos_site_id
 _symmetry_equiv_pos_as_xyz
  1  'x, y, z'
loop_
 _atom_site_type_symbol
 _atom_site_label
 _atom_site_symmetry_multiplicity
 _atom_site_fract_x
 _atom_site_fract_y
 _atom_site_fract_z
 _atom_site_occupancy
  Mg  Mg0  1  -0.00000296  -0.00000099  0.00000087  1
  Mg  Mg1  1  0.00000107  0.50000351  0.50000141  1
  Mg  Mg2  1  0.50000573  0.00000025  0.49999856  1
  Mg  Mg3  1  0.49999815  0.49999761  -0.00000306  1
  N  N4  1  0.16631534  0.66651278  0.83353737  1
  N  N5  1  0.16647515  0.83361734  0.33357295  1
  N  N6  1  0.33356600  0.33349716  0.33364729  1
  N  N7  1  0.33339665  0.16625545  0.83356887  1
  N  N8  1  0.66642610  0.66655611  0.66632466  1
  N  N9  1  0.66651796  0.83366062  0.16643133  1
  N  N10  1  0.83355799  0.16640327  0.66644566  1
  N  N11  1  0.83371318  0.33350955  0.16650718  1
  O  O12  1  0.04877930  0.71748860  0.33188628  1
  O  O13  1  0.04885806  0.78238800  0.83187653  1
  O  O14  1  0.16814332  0.95117513  0.21756869  1
  O  O15  1  0.16816514  0.54878763  0.71754756  1
  O  O16  1  0.21760160  0.16815232  0.95117605  1
  O  O17  1  0.21756352  0.33187700  0.45117322  1
  O  O18  1  0.28247134  0.83184715  0.45122410  1
  O  O19  1  0.28252987  0.66814043  0.95126204  1
  O  O20  1  0.33186779  0.45124908  0.21748392  1
  O  O21  1  0.33186812  0.04885028  0.71758102  1
  O  O22  1  0.45117129  0.21758017  0.33185544  1
  O  O23  1  0.45130320  0.28257913  0.83186504  1
  O  O24  1  0.54873081  0.71745074  0.16812216  1
  O  O25  1  0.54884485  0.78240248  0.66814663  1
  O  O26  1  0.66812836  0.95114688  0.28242015  1
  O  O27  1  0.66814730  0.54873299  0.78254044  1
  O  O28  1  0.71752175  0.16816631  0.54876554  1
  O  O29  1  0.71744770  0.33186310  0.04872093  1
  O  O30  1  0.78244754  0.66813413  0.54883459  1
  O  O31  1  0.78241794  0.83183362  0.04880229  1
  O  O32  1  0.83185208  0.04883024  0.78243103  1
  O  O33  1  0.83183540  0.45120741  0.28243890  1
  O  O34  1  0.95113880  0.21761986  0.16812131  1
  O  O35  1  0.95121757  0.28250469  0.66812106  1
