# generated using pymatgen
data_CsAuCl3
_symmetry_space_group_name_H-M   'P 1'
_cell_length_a   7.59988879
_cell_length_b   7.59988880
_cell_length_c   7.80710273
_cell_angle_alpha   119.12582314
_cell_angle_beta   119.12582319
_cell_angle_gamma   90.00000004
_symmetry_Int_Tables_number   1
_chemical_formula_structural   CsAuCl3
_chemical_formula_sum   'Cs2 Au2 Cl6'
_cell_volume   327.09616561
_cell_formula_units_Z   2
loop_
 _symmetry_equiv_pos_site_id
 _symmetry_equiv_pos_as_xyz
  1  'x, y, z'
loop_
 _atom_site_type_symbol
 _atom_site_label
 _atom_site_symmetry_multiplicity
 _atom_site_fract_x
 _atom_site_fract_y
 _atom_site_fract_z
 _atom_site_occupancy
  Cl  Cl0  1  0.29517101  0.29517101  0.59034201  1
  Cl  Cl1  1  0.70482899  0.70482899  0.40965799  1
  Cl  Cl2  1  0.78033290  0.78033290  0.00000000  1
  Cl  Cl3  1  0.21966710  0.78033290  0.00000000  1
  Cl  Cl4  1  0.21966710  0.21966710  0.00000000  1
  Cl  Cl5  1  0.78033290  0.21966710  0.00000000  1
  Cs  Cs6  1  0.75000000  0.25000000  0.50000000  1
  Cs  Cs7  1  0.25000000  0.75000000  0.50000000  1
  Au  Au8  1  0.50000000  0.50000000  0.00000000  1
  Au  Au9  1  0.00000000  0.00000000  0.00000000  1
