# generated using pymatgen
data_TiCl4
_symmetry_space_group_name_H-M   'P 1'
_cell_length_a   7.16844759
_cell_length_b   10.74039103
_cell_length_c   10.75060702
_cell_angle_alpha   102.05409435
_cell_angle_beta   90.00000000
_cell_angle_gamma   90.00000000
_symmetry_Int_Tables_number   1
_chemical_formula_structural   TiCl4
_chemical_formula_sum   'Ti4 Cl16'
_cell_volume   809.45970059
_cell_formula_units_Z   4
loop_
 _symmetry_equiv_pos_site_id
 _symmetry_equiv_pos_as_xyz
  1  'x, y, z'
loop_
 _atom_site_type_symbol
 _atom_site_label
 _atom_site_symmetry_multiplicity
 _atom_site_fract_x
 _atom_site_fract_y
 _atom_site_fract_z
 _atom_site_occupancy
  Cl  Cl0  1  0.57524082  0.58495165  0.20709367  1
  Cl  Cl1  1  0.07524082  0.41504835  0.29290633  1
  Cl  Cl2  1  0.42475918  0.41504835  0.79290633  1
  Cl  Cl3  1  0.92475918  0.58495165  0.70709367  1
  Cl  Cl4  1  0.63610199  0.80479371  0.91828055  1
  Cl  Cl5  1  0.13610199  0.19520629  0.58171945  1
  Cl  Cl6  1  0.36389801  0.19520629  0.08171945  1
  Cl  Cl7  1  0.86389801  0.80479371  0.41828055  1
  Cl  Cl8  1  0.06900267  0.90695533  0.80972849  1
  Cl  Cl9  1  0.56900267  0.09304467  0.69027151  1
  Cl  Cl10  1  0.93099733  0.09304467  0.19027151  1
  Cl  Cl11  1  0.43099733  0.90695533  0.30972849  1
  Cl  Cl12  1  0.06573300  0.69815554  0.02846209  1
  Cl  Cl13  1  0.56573300  0.30184446  0.47153791  1
  Cl  Cl14  1  0.93426700  0.30184446  0.97153791  1
  Cl  Cl15  1  0.43426700  0.69815554  0.52846209  1
  Ti  Ti16  1  0.57662042  0.74887540  0.36635256  1
  Ti  Ti17  1  0.07662042  0.25112460  0.13364744  1
  Ti  Ti18  1  0.42337958  0.25112460  0.63364744  1
  Ti  Ti19  1  0.92337958  0.74887540  0.86635256  1
