# generated using pymatgen
data_AsCl5
_symmetry_space_group_name_H-M   'P 1'
_cell_length_a   6.78945513
_cell_length_b   7.73685303
_cell_length_c   8.06346415
_cell_angle_alpha   90.00000000
_cell_angle_beta   90.00000000
_cell_angle_gamma   90.00000000
_symmetry_Int_Tables_number   1
_chemical_formula_structural   AsCl5
_chemical_formula_sum   'As2 Cl10'
_cell_volume   423.56584134
_cell_formula_units_Z   2
loop_
 _symmetry_equiv_pos_site_id
 _symmetry_equiv_pos_as_xyz
  1  'x, y, z'
loop_
 _atom_site_type_symbol
 _atom_site_label
 _atom_site_symmetry_multiplicity
 _atom_site_fract_x
 _atom_site_fract_y
 _atom_site_fract_z
 _atom_site_occupancy
  Cl  Cl0  1  0.82617716  0.25000000  0.47023263  1
  Cl  Cl1  1  0.82617716  0.25000000  0.02976737  1
  Cl  Cl2  1  0.33924700  0.50837649  0.25000000  1
  Cl  Cl3  1  0.33924700  -0.00837649  0.25000000  1
  Cl  Cl4  1  0.66075300  1.00837649  0.75000000  1
  Cl  Cl5  1  0.66075300  0.49162351  0.75000000  1
  Cl  Cl6  1  0.85476803  0.75000000  0.25000000  1
  Cl  Cl7  1  0.14523197  0.25000000  0.75000000  1
  Cl  Cl8  1  0.17382284  0.75000000  0.97023263  1
  Cl  Cl9  1  0.17382284  0.75000000  0.52976737  1
  As  As10  1  0.82513538  0.25000000  0.75000000  1
  As  As11  1  0.17486462  0.75000000  0.25000000  1
