# generated using pymatgen
data_Li2AlFeO4
_symmetry_space_group_name_H-M   'P 1'
_cell_length_a   6.40400243
_cell_length_b   10.92380343
_cell_length_c   5.04583424
_cell_angle_alpha   90.00000000
_cell_angle_beta   90.00000000
_cell_angle_gamma   90.00000000
_symmetry_Int_Tables_number   1
_chemical_formula_structural   Li2AlFeO4
_chemical_formula_sum   'Li8 Al4 Fe4 O16'
_cell_volume   352.98670157
_cell_formula_units_Z   4
loop_
 _symmetry_equiv_pos_site_id
 _symmetry_equiv_pos_as_xyz
  1  'x, y, z'
loop_
 _atom_site_type_symbol
 _atom_site_label
 _atom_site_symmetry_multiplicity
 _atom_site_fract_x
 _atom_site_fract_y
 _atom_site_fract_z
 _atom_site_occupancy
  Li  Li0  1  0.00400657  0.83265639  0.75566190  1
  Li  Li1  1  0.24719505  0.08530022  0.75618449  1
  Li  Li2  1  0.25280495  0.58530022  0.75618449  1
  Li  Li3  1  0.49599343  0.33265639  0.75566190  1
  Li  Li4  1  0.50400657  0.66734361  0.25566190  1
  Li  Li5  1  0.74719505  0.41469978  0.25618449  1
  Li  Li6  1  0.75280495  0.91469978  0.25618449  1
  Li  Li7  1  0.99599343  0.16734361  0.25566190  1
  Al  Al8  1  0.00667033  0.66724043  0.26202177  1
  Al  Al9  1  0.49332967  0.16724043  0.26202177  1
  Al  Al10  1  0.50667033  0.83275957  0.76202177  1
  Al  Al11  1  0.99332967  0.33275957  0.76202177  1
  Fe  Fe12  1  0.24352055  0.41547533  0.25966790  1
  Fe  Fe13  1  0.25647945  0.91547533  0.25966790  1
  Fe  Fe14  1  0.74352055  0.08452467  0.75966790  1
  Fe  Fe15  1  0.75647945  0.58452467  0.75966790  1
  O  O16  1  0.00498583  0.33628518  0.11594979  1
  O  O17  1  0.01562712  0.82379614  0.15645544  1
  O  O18  1  0.26491005  0.08410710  0.15899059  1
  O  O19  1  0.22360239  0.40652974  0.63819412  1
  O  O20  1  0.27639761  0.90652974  0.63819412  1
  O  O21  1  0.23508995  0.58410710  0.15899059  1
  O  O22  1  0.48437288  0.32379614  0.15645544  1
  O  O23  1  0.49501317  0.83628518  0.11594979  1
  O  O24  1  0.50498683  0.16371482  0.61594979  1
  O  O25  1  0.51562712  0.67620386  0.65645544  1
  O  O26  1  0.76491005  0.41589290  0.65899059  1
  O  O27  1  0.72360239  0.09347026  0.13819412  1
  O  O28  1  0.77639761  0.59347026  0.13819412  1
  O  O29  1  0.73508995  0.91589290  0.65899059  1
  O  O30  1  0.98437288  0.17620386  0.65645544  1
  O  O31  1  0.99501317  0.66371482  0.61594979  1
