# generated using pymatgen
data_LaGeBO5
_symmetry_space_group_name_H-M   'P 1'
_cell_length_a   7.06524491
_cell_length_b   7.06524492
_cell_length_c   6.92244449
_cell_angle_alpha   90.00000000
_cell_angle_beta   90.00000000
_cell_angle_gamma   120.00000001
_symmetry_Int_Tables_number   1
_chemical_formula_structural   LaGeBO5
_chemical_formula_sum   'La3 Ge3 B3 O15'
_cell_volume   299.25716378
_cell_formula_units_Z   3
loop_
 _symmetry_equiv_pos_site_id
 _symmetry_equiv_pos_as_xyz
  1  'x, y, z'
loop_
 _atom_site_type_symbol
 _atom_site_label
 _atom_site_symmetry_multiplicity
 _atom_site_fract_x
 _atom_site_fract_y
 _atom_site_fract_z
 _atom_site_occupancy
  B  B0  1  0.89875382  0.88529550  0.64170915  1
  B  B1  1  0.98654168  0.10124618  0.30837581  1
  B  B2  1  0.11470450  0.01345832  0.97504248  1
  O  O3  1  0.15478809  0.54286513  0.65680573  1
  O  O4  1  0.38807704  0.84521191  0.32347240  1
  O  O5  1  0.45713487  0.61192296  0.99013907  1
  O  O6  1  0.05589330  0.04297683  0.77888255  1
  O  O7  1  0.95702317  0.01291647  0.11221588  1
  O  O8  1  0.98708353  0.94410670  0.44554921  1
  O  O9  1  0.34810051  0.19203610  0.01119762  1
  O  O10  1  0.80796390  0.15606441  0.34453095  1
  O  O11  1  0.84393559  0.65189949  0.67786429  1
  O  O12  1  0.18559386  0.32771754  0.32714502  1
  O  O13  1  0.67228246  0.85787632  0.66047835  1
  O  O14  1  0.14212368  0.81440614  0.99381168  1
  O  O15  1  0.61362931  0.47156573  0.34222250  1
  O  O16  1  0.52843427  0.14206357  0.67555583  1
  O  O17  1  0.85793643  0.38637069  0.00888916  1
  Ge  Ge18  1  0.41696424  0.42081346  0.16794309  1
  Ge  Ge19  1  0.00384922  0.58303576  0.83460976  1
  Ge  Ge20  1  0.57918654  0.99615078  0.50127643  1
  La  La21  1  0.41137278  0.40961705  0.66826101  1
  La  La22  1  0.99824427  0.58862722  0.33492768  1
  La  La23  1  0.59038295  0.00175573  0.00159435  1
