# generated using pymatgen
data_Mo(PO4)2
_symmetry_space_group_name_H-M   'P 1'
_cell_length_a   11.50733449
_cell_length_b   5.25930214
_cell_length_c   10.97272150
_cell_angle_alpha   90.00000000
_cell_angle_beta   90.00000000
_cell_angle_gamma   90.00000000
_symmetry_Int_Tables_number   1
_chemical_formula_structural   Mo(PO4)2
_chemical_formula_sum   'Mo4 P8 O32'
_cell_volume   664.07512821
_cell_formula_units_Z   4
loop_
 _symmetry_equiv_pos_site_id
 _symmetry_equiv_pos_as_xyz
  1  'x, y, z'
loop_
 _atom_site_type_symbol
 _atom_site_label
 _atom_site_symmetry_multiplicity
 _atom_site_fract_x
 _atom_site_fract_y
 _atom_site_fract_z
 _atom_site_occupancy
  O  O0  1  0.55576806  0.25602053  0.20562699  1
  O  O1  1  0.97057998  0.49350298  0.05800905  1
  O  O2  1  0.96501076  0.01587964  0.05888459  1
  O  O3  1  0.94423191  0.74397920  0.70562698  1
  O  O4  1  0.02941971  0.99350189  0.44199094  1
  O  O5  1  0.03498980  0.51588045  0.44111540  1
  O  O6  1  0.05576865  0.24397838  0.79437299  1
  O  O7  1  0.07785898  0.24977206  0.22419817  1
  O  O8  1  0.15116863  0.24617803  0.01042692  1
  O  O9  1  0.21178562  0.24510026  0.54784061  1
  O  O10  1  0.24479178  0.49014845  0.84075190  1
  O  O11  1  0.24855555  0.97706749  0.33990088  1
  O  O12  1  0.25144386  0.02293223  0.83990087  1
  O  O13  1  0.25520850  0.50985127  0.34075191  1
  O  O14  1  0.28821466  0.75489947  0.04784062  1
  O  O15  1  0.34883165  0.75382169  0.51042691  1
  O  O16  1  0.42214130  0.75022766  0.72419816  1
  O  O17  1  0.44423163  0.75602134  0.29437300  1
  O  O18  1  0.46501048  0.48411927  0.94111539  1
  O  O19  1  0.84883193  0.74617884  0.48957307  1
  O  O20  1  0.52941999  0.50649865  0.55800904  1
  O  O21  1  0.53498921  0.98412008  0.55888458  1
  O  O22  1  0.92214158  0.74977287  0.27580182  1
  O  O23  1  0.57785926  0.25022685  0.77580181  1
  O  O24  1  0.65116805  0.25382088  0.98957306  1
  O  O25  1  0.71178591  0.25490056  0.45215937  1
  O  O26  1  0.74479207  0.00985236  0.15924809  1
  O  O27  1  0.74855583  0.52293304  0.66009910  1
  O  O28  1  0.75144414  0.47706668  0.16009911  1
  O  O29  1  0.75520791  0.99014927  0.65924808  1
  O  O30  1  0.78821407  0.74509916  0.95215936  1
  O  O31  1  0.47058057  0.00649783  0.94199093  1
  P  P32  1  0.46204768  0.74886302  0.59423965  1
  P  P33  1  0.53795201  0.24886221  0.90576032  1
  P  P34  1  0.66505252  0.24891315  0.13822645  1
  P  P35  1  0.83494746  0.75108657  0.63822644  1
  P  P36  1  0.03795173  0.25113670  0.09423966  1
  P  P37  1  0.16505224  0.25108576  0.86177353  1
  P  P38  1  0.33494718  0.74891396  0.36177354  1
  P  P39  1  0.96204796  0.75113751  0.40576033  1
  Mo  Mo40  1  0.84648066  0.74829300  0.09395853  1
  Mo  Mo41  1  0.65351931  0.25170672  0.59395852  1
  Mo  Mo42  1  0.34648125  0.75170563  0.90604145  1
  Mo  Mo43  1  0.15351903  0.24829409  0.40604146  1
