# generated using pymatgen
data_PPbS3
_symmetry_space_group_name_H-M   'P 1'
_cell_length_a   6.80400544
_cell_length_b   7.60750333
_cell_length_c   9.45953500
_cell_angle_alpha   90.00000000
_cell_angle_beta   91.80278784
_cell_angle_gamma   90.00000000
_symmetry_Int_Tables_number   1
_chemical_formula_structural   PPbS3
_chemical_formula_sum   'P4 Pb4 S12'
_cell_volume   489.39730802
_cell_formula_units_Z   4
loop_
 _symmetry_equiv_pos_site_id
 _symmetry_equiv_pos_as_xyz
  1  'x, y, z'
loop_
 _atom_site_type_symbol
 _atom_site_label
 _atom_site_symmetry_multiplicity
 _atom_site_fract_x
 _atom_site_fract_y
 _atom_site_fract_z
 _atom_site_occupancy
  P  P0  1  0.83806720  0.14205890  0.71350960  1
  P  P1  1  0.33806720  0.85794110  0.21350960  1
  P  P2  1  0.71114797  0.35894326  0.84465612  1
  P  P3  1  0.21114797  0.64105674  0.34465612  1
  S  S4  1  0.96165875  0.55815103  0.24040663  1
  S  S5  1  0.92203229  0.54994236  0.83991000  1
  S  S6  1  0.42203229  0.45005764  0.33991000  1
  S  S7  1  0.08823043  0.05990604  0.81757636  1
  S  S8  1  0.88191407  0.24585298  0.51928083  1
  S  S9  1  0.38191407  0.75414702  0.01928083  1
  S  S10  1  0.62809376  0.95026739  0.71925410  1
  S  S11  1  0.58823043  0.94009396  0.31757636  1
  S  S12  1  0.66654810  0.25390642  0.03846399  1
  S  S13  1  0.12809376  0.04973261  0.21925410  1
  S  S14  1  0.16654810  0.74609358  0.53846399  1
  S  S15  1  0.46165875  0.44184897  0.74040663  1
  Pb  Pb16  1  0.74129241  0.62773785  0.52786303  1
  Pb  Pb17  1  0.30741504  0.12684045  0.52787935  1
  Pb  Pb18  1  0.80741504  0.87315955  0.02787935  1
  Pb  Pb19  1  0.24129241  0.37226215  0.02786303  1
