# generated using pymatgen
data_Hf5P7Pd9
_symmetry_space_group_name_H-M   'P 1'
_cell_length_a   3.79498525
_cell_length_b   6.54724052
_cell_length_c   13.72552760
_cell_angle_alpha   103.79837819
_cell_angle_beta   90.00000000
_cell_angle_gamma   90.00000000
_symmetry_Int_Tables_number   1
_chemical_formula_structural   Hf5P7Pd9
_chemical_formula_sum   'Hf5 P7 Pd9'
_cell_volume   331.19192435
_cell_formula_units_Z   1
loop_
 _symmetry_equiv_pos_site_id
 _symmetry_equiv_pos_as_xyz
  1  'x, y, z'
loop_
 _atom_site_type_symbol
 _atom_site_label
 _atom_site_symmetry_multiplicity
 _atom_site_fract_x
 _atom_site_fract_y
 _atom_site_fract_z
 _atom_site_occupancy
  P  P0  1  0.50000000  0.03578805  0.28725630  1
  P  P1  1  0.50000000  0.74853175  0.71274370  1
  P  P2  1  0.50000000  0.44142157  0.13515301  1
  P  P3  1  0.50000000  0.30626857  0.86484699  1
  P  P4  1  0.00000000  0.62225000  0.43053285  1
  P  P5  1  0.00000000  0.19171715  0.56946715  1
  P  P6  1  0.00000000  0.86859184  0.00000000  1
  Pd  Pd7  1  0.50000000  0.79771147  0.11670599  1
  Pd  Pd8  1  0.50000000  0.46406581  0.31417518  1
  Pd  Pd9  1  0.00000000  0.82768684  0.60691299  1
  Pd  Pd10  1  0.00000000  0.22077385  0.39308701  1
  Pd  Pd11  1  0.50000000  0.11626166  0.00000000  1
  Pd  Pd12  1  0.00000000  0.50746093  0.71934079  1
  Pd  Pd13  1  0.00000000  0.78812015  0.28065921  1
  Pd  Pd14  1  0.50000000  0.14989063  0.68582482  1
  Pd  Pd15  1  0.50000000  0.68100548  0.88329401  1
  Hf  Hf16  1  0.50000000  0.46534783  0.54203793  1
  Hf  Hf17  1  0.50000000  0.92330990  0.45796207  1
  Hf  Hf18  1  0.00000000  0.47019588  0.00000000  1
  Hf  Hf19  1  0.00000000  0.17825643  0.17641223  1
  Hf  Hf20  1  0.00000000  0.00184420  0.82358777  1
