# generated using pymatgen
data_Ag8GeTe6
_symmetry_space_group_name_H-M   'P 1'
_cell_length_a   8.38428638
_cell_length_b   8.18140553
_cell_length_c   8.19069489
_cell_angle_alpha   61.73741432
_cell_angle_beta   61.46822401
_cell_angle_gamma   61.90870034
_symmetry_Int_Tables_number   1
_chemical_formula_structural   Ag8GeTe6
_chemical_formula_sum   'Ag8 Ge1 Te6'
_cell_volume   412.45227929
_cell_formula_units_Z   1
loop_
 _symmetry_equiv_pos_site_id
 _symmetry_equiv_pos_as_xyz
  1  'x, y, z'
loop_
 _atom_site_type_symbol
 _atom_site_label
 _atom_site_symmetry_multiplicity
 _atom_site_fract_x
 _atom_site_fract_y
 _atom_site_fract_z
 _atom_site_occupancy
  Ag  Ag0  1  0.22354030  0.19265362  0.81605189  1
  Ag  Ag1  1  0.23808339  0.84769365  0.17496667  1
  Ag  Ag2  1  0.60666708  0.20211437  0.20394018  1
  Ag  Ag3  1  0.94639989  0.21252046  0.19954624  1
  Ag  Ag4  1  0.98290191  0.59875514  0.37401972  1
  Ag  Ag5  1  0.55040908  0.02210119  0.01235645  1
  Ag  Ag6  1  0.01503015  0.01452054  0.59419813  1
  Ag  Ag7  1  0.01932312  0.58950754  0.00515209  1
  Ge  Ge8  1  0.52334108  0.51123842  0.50115696  1
  Te  Te9  1  0.96173710  0.98348746  0.99364335  1
  Te  Te10  1  0.22907001  0.25256295  0.25998777  1
  Te  Te11  1  0.14643883  0.61100678  0.60744665  1
  Te  Te12  1  0.62440276  0.60304341  0.11574312  1
  Te  Te13  1  0.62452603  0.12375756  0.60078606  1
  Te  Te14  1  0.61902929  0.66093690  0.63660473  1
