# generated using pymatgen
data_AlH3
_symmetry_space_group_name_H-M   'P 1'
_cell_length_a   4.71612810
_cell_length_b   4.71612810
_cell_length_c   4.71612809
_cell_angle_alpha   56.55993422
_cell_angle_beta   56.55993414
_cell_angle_gamma   56.55993417
_symmetry_Int_Tables_number   1
_chemical_formula_structural   AlH3
_chemical_formula_sum   'Al2 H6'
_cell_volume   68.27637982
_cell_formula_units_Z   2
loop_
 _symmetry_equiv_pos_site_id
 _symmetry_equiv_pos_as_xyz
  1  'x, y, z'
loop_
 _atom_site_type_symbol
 _atom_site_label
 _atom_site_symmetry_multiplicity
 _atom_site_fract_x
 _atom_site_fract_y
 _atom_site_fract_z
 _atom_site_occupancy
  H  H0  1  0.37859169  0.75000000  0.12140831  1
  H  H1  1  0.75000000  0.12140831  0.37859169  1
  H  H2  1  0.87859169  0.62140831  0.25000000  1
  H  H3  1  0.25000000  0.87859169  0.62140831  1
  H  H4  1  0.62140831  0.25000000  0.87859169  1
  H  H5  1  0.12140831  0.37859169  0.75000000  1
  Al  Al6  1  0.50000000  0.50000000  0.50000000  1
  Al  Al7  1  0.00000000  0.00000000  0.00000000  1
