# generated using pymatgen
data_Li5CrO5
_symmetry_space_group_name_H-M   'P 1'
_cell_length_a   4.06727956
_cell_length_b   5.13361649
_cell_length_c   5.66210644
_cell_angle_alpha   73.09288187
_cell_angle_beta   90.04262812
_cell_angle_gamma   66.69230027
_symmetry_Int_Tables_number   1
_chemical_formula_structural   Li5CrO5
_chemical_formula_sum   'Li5 Cr1 O5'
_cell_volume   102.97689254
_cell_formula_units_Z   1
loop_
 _symmetry_equiv_pos_site_id
 _symmetry_equiv_pos_as_xyz
  1  'x, y, z'
loop_
 _atom_site_type_symbol
 _atom_site_label
 _atom_site_symmetry_multiplicity
 _atom_site_fract_x
 _atom_site_fract_y
 _atom_site_fract_z
 _atom_site_occupancy
  Li  Li0  1  0.68297398  0.63067988  0.87569886  1
  Li  Li1  1  0.70509176  0.59563310  0.35149384  1
  Li  Li2  1  0.28810417  0.42716367  0.67624487  1
  Li  Li3  1  0.30264512  0.39328098  0.15161320  1
  Li  Li4  1  0.00643114  0.01178662  0.51374077  1
  Cr  Cr5  1  0.92337924  0.01081174  0.01465019  1
  O  O6  1  0.14158233  0.73014168  0.84689516  1
  O  O7  1  0.51156666  0.00941660  0.01594351  1
  O  O8  1  0.15813717  0.70710534  0.32317692  1
  O  O9  1  0.85331249  0.31427042  0.70612129  1
  O  O10  1  0.86112694  0.29279297  0.18087238  1
