# generated using pymatgen
data_Li5SbS
_symmetry_space_group_name_H-M   'P 1'
_cell_length_a   8.50776053
_cell_length_b   8.02491860
_cell_length_c   11.82629809
_cell_angle_alpha   90.00006913
_cell_angle_beta   138.09088483
_cell_angle_gamma   90.00604349
_symmetry_Int_Tables_number   1
_chemical_formula_structural   Li5SbS
_chemical_formula_sum   'Li20 Sb4 S4'
_cell_volume   539.32342844
_cell_formula_units_Z   4
loop_
 _symmetry_equiv_pos_site_id
 _symmetry_equiv_pos_as_xyz
  1  'x, y, z'
loop_
 _atom_site_type_symbol
 _atom_site_label
 _atom_site_symmetry_multiplicity
 _atom_site_fract_x
 _atom_site_fract_y
 _atom_site_fract_z
 _atom_site_occupancy
  Li  Li0  1  0.02471400  0.24053243  0.59908102  1
  Li  Li1  1  0.97975538  0.75216971  0.00227723  1
  Li  Li2  1  0.78522128  0.74967459  0.51862094  1
  Li  Li3  1  0.67785604  0.40408406  0.66093127  1
  Li  Li4  1  0.88895756  0.42462119  0.15469001  1
  Li  Li5  1  0.88751543  0.06849702  0.15414893  1
  Li  Li6  1  0.67599611  0.08931749  0.66239973  1
  Li  Li7  1  0.54286647  0.41795107  0.25528303  1
  Li  Li8  1  0.53377112  0.07244328  0.24989620  1
  Li  Li9  1  0.54652080  0.74589226  0.01349162  1
  Li  Li10  1  0.32400930  0.58928186  0.33758047  1
  Li  Li11  1  0.45346352  0.24585888  0.98650378  1
  Li  Li12  1  0.46625423  0.57242715  0.75011042  1
  Li  Li13  1  0.45710476  0.91792602  0.74471254  1
  Li  Li14  1  0.32215081  0.90404780  0.33909493  1
  Li  Li15  1  0.21478899  0.24952402  0.48138243  1
  Li  Li16  1  0.11251370  0.56831030  0.84586879  1
  Li  Li17  1  0.11101894  0.92443090  0.84529156  1
  Li  Li18  1  0.97529112  0.74021632  0.40091920  1
  Li  Li19  1  0.02024556  0.25192194  0.99772458  1
  Sb  Sb20  1  0.65388095  0.74651132  0.66451616  1
  Sb  Sb21  1  0.43853912  0.74484335  0.17586325  1
  Sb  Sb22  1  0.34611073  0.24649699  0.33547789  1
  Sb  Sb23  1  0.56145137  0.24486303  0.82413503  1
  S  S24  1  0.05178152  0.24662789  0.81714795  1
  S  S25  1  0.80583634  0.24325182  0.29148568  1
  S  S26  1  0.19415693  0.74303228  0.70849964  1
  S  S27  1  0.94822795  0.74672303  0.18286571  1
