# generated using pymatgen
data_SiCl2O
_symmetry_space_group_name_H-M   'P 1'
_cell_length_a   6.77325760
_cell_length_b   9.11620153
_cell_length_c   11.77925175
_cell_angle_alpha   78.03945754
_cell_angle_beta   77.76131999
_cell_angle_gamma   73.30940415
_symmetry_Int_Tables_number   1
_chemical_formula_structural   SiCl2O
_chemical_formula_sum   'Si6 Cl12 O6'
_cell_volume   672.47729813
_cell_formula_units_Z   6
loop_
 _symmetry_equiv_pos_site_id
 _symmetry_equiv_pos_as_xyz
  1  'x, y, z'
loop_
 _atom_site_type_symbol
 _atom_site_label
 _atom_site_symmetry_multiplicity
 _atom_site_fract_x
 _atom_site_fract_y
 _atom_site_fract_z
 _atom_site_occupancy
  O  O0  1  0.48823355  0.44052907  0.84826657  1
  O  O1  1  0.51176645  0.55947093  0.15173343  1
  O  O2  1  0.46838296  0.35186403  0.65071632  1
  O  O3  1  0.53161704  0.64813597  0.34928368  1
  O  O4  1  0.46913373  0.15287376  0.85043650  1
  O  O5  1  0.53086627  0.84712624  0.14956350  1
  Si  Si6  1  0.45192640  0.17536722  0.71063886  1
  Si  Si7  1  0.54807360  0.82463278  0.28936114  1
  Si  Si8  1  0.48531728  0.27299691  0.93257027  1
  Si  Si9  1  0.49043551  0.49642018  0.70632051  1
  Si  Si10  1  0.50956449  0.50357982  0.29367949  1
  Si  Si11  1  0.51468272  0.72700309  0.06742973  1
  Cl  Cl12  1  0.23504272  0.30012973  0.06284354  1
  Cl  Cl13  1  0.76495728  0.69987027  0.93715646  1
  Cl  Cl14  1  0.75166263  0.18868279  0.00283927  1
  Cl  Cl15  1  0.24833737  0.81131721  0.99716073  1
  Cl  Cl16  1  0.24793947  0.68349344  0.67773188  1
  Cl  Cl17  1  0.75206053  0.31650656  0.32226812  1
  Cl  Cl18  1  0.76247030  0.55208321  0.62988807  1
  Cl  Cl19  1  0.23752970  0.44791679  0.37011193  1
  Cl  Cl20  1  0.82488544  0.85476062  0.30654408  1
  Cl  Cl21  1  0.17511456  0.14523938  0.69345592  1
  Cl  Cl22  1  0.68808237  0.01810083  0.63049733  1
  Cl  Cl23  1  0.31191763  0.98189917  0.36950267  1
