# generated using pymatgen
data_PBr3
_symmetry_space_group_name_H-M   'P 1'
_cell_length_a   6.96102781
_cell_length_b   9.35527150
_cell_length_c   10.97076452
_cell_angle_alpha   90.00000000
_cell_angle_beta   90.00000000
_cell_angle_gamma   90.00000000
_symmetry_Int_Tables_number   1
_chemical_formula_structural   PBr3
_chemical_formula_sum   'P4 Br12'
_cell_volume   714.44147405
_cell_formula_units_Z   4
loop_
 _symmetry_equiv_pos_site_id
 _symmetry_equiv_pos_as_xyz
  1  'x, y, z'
loop_
 _atom_site_type_symbol
 _atom_site_label
 _atom_site_symmetry_multiplicity
 _atom_site_fract_x
 _atom_site_fract_y
 _atom_site_fract_z
 _atom_site_occupancy
  P  P0  1  0.02839946  0.04941361  0.25000000  1
  P  P1  1  0.52839946  0.45058639  0.75000000  1
  P  P2  1  0.47160054  0.54941361  0.25000000  1
  P  P3  1  0.97160054  0.95058639  0.75000000  1
  Br  Br4  1  0.13845996  0.17873901  0.09155820  1
  Br  Br5  1  0.63845996  0.32126099  0.90844180  1
  Br  Br6  1  0.36154004  0.67873901  0.40844180  1
  Br  Br7  1  0.86154004  0.82126099  0.59155820  1
  Br  Br8  1  0.86154004  0.82126099  0.90844180  1
  Br  Br9  1  0.36154004  0.67873901  0.09155820  1
  Br  Br10  1  0.63845996  0.32126099  0.59155820  1
  Br  Br11  1  0.13845996  0.17873901  0.40844180  1
  Br  Br12  1  0.71355975  0.10458672  0.25000000  1
  Br  Br13  1  0.21355975  0.39541328  0.75000000  1
  Br  Br14  1  0.78644025  0.60458672  0.25000000  1
  Br  Br15  1  0.28644025  0.89541328  0.75000000  1
