# generated using pymatgen
data_ReP4
_symmetry_space_group_name_H-M   'P 1'
_cell_length_a   6.26937127
_cell_length_b   9.29359740
_cell_length_c   10.93681003
_cell_angle_alpha   90.00000000
_cell_angle_beta   90.00000000
_cell_angle_gamma   90.00000000
_symmetry_Int_Tables_number   1
_chemical_formula_structural   ReP4
_chemical_formula_sum   'Re8 P32'
_cell_volume   637.23337349
_cell_formula_units_Z   8
loop_
 _symmetry_equiv_pos_site_id
 _symmetry_equiv_pos_as_xyz
  1  'x, y, z'
loop_
 _atom_site_type_symbol
 _atom_site_label
 _atom_site_symmetry_multiplicity
 _atom_site_fract_x
 _atom_site_fract_y
 _atom_site_fract_z
 _atom_site_occupancy
  P  P0  1  0.99853563  0.20925906  0.43079259  1
  P  P1  1  0.49853563  0.29074094  0.56920741  1
  P  P2  1  0.00146437  0.70925906  0.06920741  1
  P  P3  1  0.50146437  0.79074094  0.93079259  1
  P  P4  1  0.00146437  0.79074094  0.56920741  1
  P  P5  1  0.50146437  0.70925906  0.43079259  1
  P  P6  1  0.99853563  0.29074094  0.93079259  1
  P  P7  1  0.49853563  0.20925906  0.06920741  1
  P  P8  1  0.06179600  0.28237226  0.23599585  1
  P  P9  1  0.56179600  0.21762774  0.76400415  1
  P  P10  1  0.93820400  0.78237226  0.26400415  1
  P  P11  1  0.43820400  0.71762774  0.73599585  1
  P  P12  1  0.93820400  0.71762774  0.76400415  1
  P  P13  1  0.43820400  0.78237226  0.23599585  1
  P  P14  1  0.06179600  0.21762774  0.73599585  1
  P  P15  1  0.56179600  0.28237226  0.26400415  1
  P  P16  1  0.18828414  0.94762893  0.23820019  1
  P  P17  1  0.68828414  0.55237107  0.76179981  1
  P  P18  1  0.81171586  0.44762893  0.26179981  1
  P  P19  1  0.31171586  0.05237107  0.73820019  1
  P  P20  1  0.81171586  0.05237107  0.76179981  1
  P  P21  1  0.31171586  0.44762893  0.23820019  1
  P  P22  1  0.18828414  0.55237107  0.73820019  1
  P  P23  1  0.68828414  0.94762893  0.26179981  1
  P  P24  1  0.75494671  0.04376646  0.08153260  1
  P  P25  1  0.25494671  0.45623354  0.91846740  1
  P  P26  1  0.24505329  0.54376646  0.41846740  1
  P  P27  1  0.74505329  0.95623354  0.58153260  1
  P  P28  1  0.24505329  0.95623354  0.91846740  1
  P  P29  1  0.74505329  0.54376646  0.08153260  1
  P  P30  1  0.75494671  0.45623354  0.58153260  1
  P  P31  1  0.25494671  0.04376646  0.41846740  1
  Re  Re32  1  0.62192405  0.10963960  0.42445959  1
  Re  Re33  1  0.12192405  0.39036040  0.57554041  1
  Re  Re34  1  0.37807595  0.60963960  0.07554041  1
  Re  Re35  1  0.87807595  0.89036040  0.92445959  1
  Re  Re36  1  0.37807595  0.89036040  0.57554041  1
  Re  Re37  1  0.87807595  0.60963960  0.42445959  1
  Re  Re38  1  0.62192405  0.39036040  0.92445959  1
  Re  Re39  1  0.12192405  0.10963960  0.07554041  1
