# generated using pymatgen
data_Li2AlFeO4
_symmetry_space_group_name_H-M   'P 1'
_cell_length_a   5.35886549
_cell_length_b   5.35886549
_cell_length_c   6.40659588
_cell_angle_alpha   90.00000000
_cell_angle_beta   90.00000000
_cell_angle_gamma   89.42273529
_symmetry_Int_Tables_number   1
_chemical_formula_structural   Li2AlFeO4
_chemical_formula_sum   'Li4 Al2 Fe2 O8'
_cell_volume   183.97169109
_cell_formula_units_Z   2
loop_
 _symmetry_equiv_pos_site_id
 _symmetry_equiv_pos_as_xyz
  1  'x, y, z'
loop_
 _atom_site_type_symbol
 _atom_site_label
 _atom_site_symmetry_multiplicity
 _atom_site_fract_x
 _atom_site_fract_y
 _atom_site_fract_z
 _atom_site_occupancy
  Li  Li0  1  0.31634890  0.68365110  0.50000000  1
  Li  Li1  1  0.18542674  0.18542674  0.75000000  1
  Li  Li2  1  0.81457326  0.81457326  0.25000000  1
  Li  Li3  1  0.68365110  0.31634890  0.00000000  1
  Al  Al4  1  0.32585668  0.67414332  0.00000000  1
  Al  Al5  1  0.67414332  0.32585668  0.50000000  1
  Fe  Fe6  1  0.17512978  0.17512978  0.25000000  1
  Fe  Fe7  1  0.82487022  0.82487022  0.75000000  1
  O  O8  1  0.20078840  0.81895145  0.22754811  1
  O  O9  1  0.18104855  0.79921160  0.77245189  1
  O  O10  1  0.29558938  0.34199436  0.01050548  1
  O  O11  1  0.65800564  0.70441062  0.98949452  1
  O  O12  1  0.34199436  0.29558938  0.48949452  1
  O  O13  1  0.70441062  0.65800564  0.51050548  1
  O  O14  1  0.79921160  0.18104855  0.72754811  1
  O  O15  1  0.81895145  0.20078840  0.27245189  1
