# generated using pymatgen
data_LiFeSiO4
_symmetry_space_group_name_H-M   'P 1'
_cell_length_a   10.38333638
_cell_length_b   6.79409149
_cell_length_c   5.08752972
_cell_angle_alpha   90.00000000
_cell_angle_beta   90.00000000
_cell_angle_gamma   90.00000000
_symmetry_Int_Tables_number   1
_chemical_formula_structural   LiFeSiO4
_chemical_formula_sum   'Li4 Fe4 Si4 O16'
_cell_volume   358.90150031
_cell_formula_units_Z   4
loop_
 _symmetry_equiv_pos_site_id
 _symmetry_equiv_pos_as_xyz
  1  'x, y, z'
loop_
 _atom_site_type_symbol
 _atom_site_label
 _atom_site_symmetry_multiplicity
 _atom_site_fract_x
 _atom_site_fract_y
 _atom_site_fract_z
 _atom_site_occupancy
  Li  Li0  1  0.14974221  0.50694247  0.24536901  1
  Li  Li1  1  0.35025779  0.00694247  0.74536901  1
  Li  Li2  1  0.64974221  0.99305753  0.24536901  1
  Li  Li3  1  0.85025779  0.49305753  0.74536901  1
  Fe  Fe4  1  0.16899104  0.00859701  0.24712682  1
  Fe  Fe5  1  0.33100896  0.50859701  0.74712682  1
  Fe  Fe6  1  0.66899104  0.49140299  0.24712682  1
  Fe  Fe7  1  0.83100896  0.99140299  0.74712682  1
  Si  Si8  1  0.09314127  0.76669151  0.74931237  1
  Si  Si9  1  0.40685873  0.26669151  0.24931237  1
  Si  Si10  1  0.59314127  0.73330849  0.74931237  1
  Si  Si11  1  0.90685873  0.23330849  0.24931237  1
  O  O12  1  0.06214086  0.23366591  0.18873591  1
  O  O13  1  0.12052638  0.77447946  0.06900393  1
  O  O14  1  0.15955415  0.56365174  0.63259314  1
  O  O15  1  0.16802585  0.95545748  0.61370982  1
  O  O16  1  0.33197415  0.45545748  0.11370982  1
  O  O17  1  0.34044585  0.06365174  0.13259314  1
  O  O18  1  0.37947362  0.27447946  0.56900393  1
  O  O19  1  0.43785914  0.73366591  0.68873591  1
  O  O20  1  0.56214086  0.26633409  0.18873591  1
  O  O21  1  0.62052638  0.72552054  0.06900393  1
  O  O22  1  0.65955415  0.93634826  0.63259314  1
  O  O23  1  0.66802585  0.54454252  0.61370982  1
  O  O24  1  0.83197415  0.04454252  0.11370982  1
  O  O25  1  0.84044585  0.43634826  0.13259314  1
  O  O26  1  0.87947362  0.22552054  0.56900393  1
  O  O27  1  0.93785914  0.76633409  0.68873591  1
