# generated using pymatgen
data_Li4Mn5O10
_symmetry_space_group_name_H-M   'P 1'
_cell_length_a   7.98751708
_cell_length_b   5.23620513
_cell_length_c   5.19379256
_cell_angle_alpha   86.53022498
_cell_angle_beta   89.29211005
_cell_angle_gamma   71.86008961
_symmetry_Int_Tables_number   1
_chemical_formula_structural   Li4Mn5O10
_chemical_formula_sum   'Li4 Mn5 O10'
_cell_volume   206.04702851
_cell_formula_units_Z   1
loop_
 _symmetry_equiv_pos_site_id
 _symmetry_equiv_pos_as_xyz
  1  'x, y, z'
loop_
 _atom_site_type_symbol
 _atom_site_label
 _atom_site_symmetry_multiplicity
 _atom_site_fract_x
 _atom_site_fract_y
 _atom_site_fract_z
 _atom_site_occupancy
  Li  Li0  1  0.20295994  0.12579347  0.56497501  1
  Li  Li1  1  0.20854585  0.69029507  0.42683907  1
  Li  Li2  1  0.58920043  0.52526402  0.41782101  1
  Li  Li3  1  0.80056390  0.92331238  0.42523580  1
  Mn  Mn4  1  0.00529868  0.99465987  0.99971866  1
  Mn  Mn5  1  0.19893659  0.40853803  0.00992550  1
  Mn  Mn6  1  0.59511844  0.19805610  0.97391110  1
  Mn  Mn7  1  0.39862767  0.80042077  0.98405033  1
  Mn  Mn8  1  0.80108831  0.59106966  0.98054880  1
  O  O9  1  0.01027859  0.33590244  0.81815298  1
  O  O10  1  0.21040735  0.02176631  0.20834829  1
  O  O11  1  0.39023926  0.14591550  0.80693240  1
  O  O12  1  0.01506008  0.67013856  0.21067728  1
  O  O13  1  0.21725135  0.77177562  0.77001614  1
  O  O14  1  0.38661582  0.48854773  0.19789377  1
  O  O15  1  0.57505625  0.54750874  0.78293235  1
  O  O16  1  0.76936646  0.27107032  0.19102437  1
  O  O17  1  0.60645913  0.84043011  0.17896034  1
  O  O18  1  0.81891189  0.91617831  0.79275979  1
