# generated using pymatgen
data_BH6N
_symmetry_space_group_name_H-M   'P 1'
_cell_length_a   4.30568774
_cell_length_b   4.43995601
_cell_length_c   13.12107015
_cell_angle_alpha   112.58778115
_cell_angle_beta   101.58181489
_cell_angle_gamma   109.27519037
_symmetry_Int_Tables_number   1
_chemical_formula_structural   BH6N
_chemical_formula_sum   'B3 H18 N3'
_cell_volume   202.58501745
_cell_formula_units_Z   3
loop_
 _symmetry_equiv_pos_site_id
 _symmetry_equiv_pos_as_xyz
  1  'x, y, z'
loop_
 _atom_site_type_symbol
 _atom_site_label
 _atom_site_symmetry_multiplicity
 _atom_site_fract_x
 _atom_site_fract_y
 _atom_site_fract_z
 _atom_site_occupancy
  B  B0  1  0.05793008  0.90491901  0.64450962  1
  B  B1  1  0.06604085  0.92327806  0.32155457  1
  B  B2  1  0.01994745  0.94272778  0.98386605  1
  H  H3  1  0.15893419  0.77713382  0.92682306  1
  H  H4  1  0.62219298  0.41624128  0.95244461  1
  H  H5  1  0.33031605  0.11795582  0.73361515  1
  H  H6  1  0.11393184  0.69473426  0.56617166  1
  H  H7  1  0.62734373  0.80005890  0.71238726  1
  H  H8  1  0.89155170  0.62857053  0.74725366  1
  H  H9  1  0.59389731  0.41954273  0.61165429  1
  H  H10  1  0.31359145  0.15501788  0.41614873  1
  H  H11  1  0.23970541  0.21935422  0.07583703  1
  H  H12  1  0.84053696  0.01880413  0.92266359  1
  H  H13  1  0.16570089  0.73682030  0.25262574  1
  H  H14  1  0.62877282  0.79074603  0.38388149  1
  H  H15  1  0.87133396  0.58584006  0.40451966  1
  H  H16  1  0.58727724  0.42911555  0.26996811  1
  H  H17  1  0.93512985  0.07173534  0.60801580  1
  H  H18  1  0.57236633  0.76396400  0.03836308  1
  H  H19  1  0.89065504  0.67647088  0.09291861  1
  H  H20  1  0.92841123  0.06675279  0.27742350  1
  N  N21  1  0.77445426  0.67199230  0.68130158  1
  N  N22  1  0.76972081  0.66346646  0.34676111  1
  N  N23  1  0.76111958  0.68240986  0.01954505  1
