# generated using pymatgen
data_Rb2SnTe5
_symmetry_space_group_name_H-M   'P 1'
_cell_length_a   8.93002106
_cell_length_b   8.93002106
_cell_length_c   10.07392961
_cell_angle_alpha   116.30978666
_cell_angle_beta   116.30978670
_cell_angle_gamma   90.00000000
_symmetry_Int_Tables_number   1
_chemical_formula_structural   Rb2SnTe5
_chemical_formula_sum   'Rb4 Sn2 Te10'
_cell_volume   625.94413497
_cell_formula_units_Z   2
loop_
 _symmetry_equiv_pos_site_id
 _symmetry_equiv_pos_as_xyz
  1  'x, y, z'
loop_
 _atom_site_type_symbol
 _atom_site_label
 _atom_site_symmetry_multiplicity
 _atom_site_fract_x
 _atom_site_fract_y
 _atom_site_fract_z
 _atom_site_occupancy
  Rb  Rb0  1  0.24603347  0.24603347  0.49206693  1
  Rb  Rb1  1  0.74603347  0.74603347  0.49206693  1
  Rb  Rb2  1  0.99567359  0.99567359  0.99134719  1
  Rb  Rb3  1  0.49567359  0.49567359  0.99134719  1
  Sn  Sn4  1  0.74706980  0.24706980  0.49413960  1
  Sn  Sn5  1  0.24706980  0.74706980  0.49413960  1
  Te  Te6  1  0.46053630  0.96053630  0.26733239  1
  Te  Te7  1  0.30679609  0.46053630  0.26733239  1
  Te  Te8  1  0.96053630  0.80679609  0.26733239  1
  Te  Te9  1  0.80679609  0.30679609  0.26733239  1
  Te  Te10  1  0.18654204  0.68654204  0.72002975  1
  Te  Te11  1  0.03348771  0.18654204  0.72002975  1
  Te  Te12  1  0.68654204  0.53348771  0.72002975  1
  Te  Te13  1  0.53348771  0.03348771  0.72002975  1
  Te  Te14  1  0.49696099  0.99696099  0.99392199  1
  Te  Te15  1  0.99696099  0.49696099  0.99392199  1
