# generated using pymatgen
data_H3NO4
_symmetry_space_group_name_H-M   'P 1'
_cell_length_a   5.30974613
_cell_length_b   8.37238643
_cell_length_c   6.61443938
_cell_angle_alpha   90.00000000
_cell_angle_beta   90.00000000
_cell_angle_gamma   90.00000000
_symmetry_Int_Tables_number   1
_chemical_formula_structural   H3NO4
_chemical_formula_sum   'H12 N4 O16'
_cell_volume   294.04653274
_cell_formula_units_Z   4
loop_
 _symmetry_equiv_pos_site_id
 _symmetry_equiv_pos_as_xyz
  1  'x, y, z'
loop_
 _atom_site_type_symbol
 _atom_site_label
 _atom_site_symmetry_multiplicity
 _atom_site_fract_x
 _atom_site_fract_y
 _atom_site_fract_z
 _atom_site_occupancy
  H  H0  1  0.66660539  0.16966179  0.89891875  1
  H  H1  1  0.35765331  0.18143081  0.90819550  1
  H  H2  1  0.52244307  0.33764220  0.85570758  1
  H  H3  1  0.85765331  0.81856919  0.09180450  1
  H  H4  1  0.02244307  0.66235780  0.14429242  1
  H  H5  1  0.16660539  0.83033821  0.10108125  1
  H  H6  1  0.85765331  0.68143081  0.59180450  1
  H  H7  1  0.02244307  0.83764220  0.64429242  1
  H  H8  1  0.16660539  0.66966179  0.60108125  1
  H  H9  1  0.52244307  0.16235780  0.35570758  1
  H  H10  1  0.66660539  0.33033821  0.39891875  1
  H  H11  1  0.35765331  0.31856919  0.40819550  1
  N  N12  1  0.02231117  0.39593682  0.78487528  1
  N  N13  1  0.52231117  0.60406318  0.21512472  1
  N  N14  1  0.52231117  0.89593682  0.71512472  1
  N  N15  1  0.02231117  0.10406318  0.28487528  1
  O  O16  1  0.81405417  0.45797761  0.73382645  1
  O  O17  1  0.31405417  0.54202239  0.26617355  1
  O  O18  1  0.31405417  0.95797761  0.76617355  1
  O  O19  1  0.81405417  0.04202239  0.23382645  1
  O  O20  1  0.22851182  0.46660584  0.74285664  1
  O  O21  1  0.72851182  0.53339416  0.25714336  1
  O  O22  1  0.72851182  0.96660584  0.75714336  1
  O  O23  1  0.22851182  0.03339416  0.24285664  1
  O  O24  1  0.02564779  0.26375573  0.87804308  1
  O  O25  1  0.52564779  0.73624427  0.12195692  1
  O  O26  1  0.52564779  0.76375573  0.62195692  1
  O  O27  1  0.02564779  0.23624427  0.37804308  1
  O  O28  1  0.51985027  0.23808698  0.94094652  1
  O  O29  1  0.01985027  0.76191302  0.05905348  1
  O  O30  1  0.01985027  0.73808698  0.55905348  1
  O  O31  1  0.51985027  0.26191302  0.44094652  1
