# generated using pymatgen
data_Zn2Ge3O8
_symmetry_space_group_name_H-M   'P 1'
_cell_length_a   8.34598822
_cell_length_b   8.34598822
_cell_length_c   8.34598822
_cell_angle_alpha   90.00000000
_cell_angle_beta   90.00000000
_cell_angle_gamma   90.00000000
_symmetry_Int_Tables_number   1
_chemical_formula_structural   Zn2Ge3O8
_chemical_formula_sum   'Zn8 Ge12 O32'
_cell_volume   581.34414411
_cell_formula_units_Z   4
loop_
 _symmetry_equiv_pos_site_id
 _symmetry_equiv_pos_as_xyz
  1  'x, y, z'
loop_
 _atom_site_type_symbol
 _atom_site_label
 _atom_site_symmetry_multiplicity
 _atom_site_fract_x
 _atom_site_fract_y
 _atom_site_fract_z
 _atom_site_occupancy
  O  O0  1  0.86170557  0.86170557  0.86170557  1
  O  O1  1  0.61170557  0.88829443  0.11170557  1
  O  O2  1  0.88829443  0.11170557  0.61170557  1
  O  O3  1  0.11170557  0.61170557  0.88829443  1
  O  O4  1  0.36170557  0.63829443  0.13829443  1
  O  O5  1  0.63829443  0.13829443  0.36170557  1
  O  O6  1  0.13829443  0.36170557  0.63829443  1
  O  O7  1  0.38829443  0.38829443  0.38829443  1
  O  O8  1  0.15145065  0.85438116  0.11039300  1
  O  O9  1  0.65145065  0.64561884  0.88960700  1
  O  O10  1  0.85438116  0.11039300  0.15145065  1
  O  O11  1  0.14561884  0.61039300  0.34854935  1
  O  O12  1  0.11039300  0.15145065  0.85438116  1
  O  O13  1  0.38960700  0.84854935  0.35438116  1
  O  O14  1  0.40145065  0.86039300  0.89561884  1
  O  O15  1  0.90145065  0.63960700  0.10438116  1
  O  O16  1  0.59854935  0.36039300  0.60438116  1
  O  O17  1  0.63960700  0.10438116  0.90145065  1
  O  O18  1  0.60438116  0.59854935  0.36039300  1
  O  O19  1  0.10438116  0.90145065  0.63960700  1
  O  O20  1  0.09854935  0.13960700  0.39561884  1
  O  O21  1  0.84854935  0.35438116  0.38960700  1
  O  O22  1  0.34854935  0.14561884  0.61039300  1
  O  O23  1  0.64561884  0.88960700  0.65145065  1
  O  O24  1  0.35438116  0.38960700  0.84854935  1
  O  O25  1  0.61039300  0.34854935  0.14561884  1
  O  O26  1  0.88960700  0.65145065  0.64561884  1
  O  O27  1  0.39561884  0.09854935  0.13960700  1
  O  O28  1  0.13960700  0.39561884  0.09854935  1
  O  O29  1  0.36039300  0.60438116  0.59854935  1
  O  O30  1  0.89561884  0.40145065  0.86039300  1
  O  O31  1  0.86039300  0.89561884  0.40145065  1
  Zn  Zn32  1  0.24831672  0.24831672  0.24831672  1
  Zn  Zn33  1  -0.00168328  0.50168328  0.49831672  1
  Zn  Zn34  1  0.50168328  0.49831672  -0.00168328  1
  Zn  Zn35  1  0.49831672  -0.00168328  0.50168328  1
  Zn  Zn36  1  0.74831672  0.25168328  0.75168328  1
  Zn  Zn37  1  0.25168328  0.75168328  0.74831672  1
  Zn  Zn38  1  0.75168328  0.74831672  0.25168328  1
  Zn  Zn39  1  1.00168328  1.00168328  1.00168328  1
  Ge  Ge40  1  0.62500000  0.12926373  0.12073627  1
  Ge  Ge41  1  0.62073627  0.87500000  0.87073627  1
  Ge  Ge42  1  0.62926373  0.37926373  0.37500000  1
  Ge  Ge43  1  0.37073627  0.87926373  0.12500000  1
  Ge  Ge44  1  0.87926373  0.12500000  0.37073627  1
  Ge  Ge45  1  0.12073627  0.62500000  0.12926373  1
  Ge  Ge46  1  0.37926373  0.37500000  0.62926373  1
  Ge  Ge47  1  0.87073627  0.62073627  0.87500000  1
  Ge  Ge48  1  0.12926373  0.12073627  0.62500000  1
  Ge  Ge49  1  0.37500000  0.62926373  0.37926373  1
  Ge  Ge50  1  0.87500000  0.87073627  0.62073627  1
  Ge  Ge51  1  0.12500000  0.37073627  0.87926373  1
