# generated using pymatgen
data_Ga2TeS2
_symmetry_space_group_name_H-M   'P 1'
_cell_length_a   7.21827874
_cell_length_b   7.21827875
_cell_length_c   7.26434903
_cell_angle_alpha   119.79043017
_cell_angle_beta   119.79043020
_cell_angle_gamma   89.99999994
_symmetry_Int_Tables_number   1
_chemical_formula_structural   Ga2TeS2
_chemical_formula_sum   'Ga4 Te2 S4'
_cell_volume   269.32541570
_cell_formula_units_Z   2
loop_
 _symmetry_equiv_pos_site_id
 _symmetry_equiv_pos_as_xyz
  1  'x, y, z'
loop_
 _atom_site_type_symbol
 _atom_site_label
 _atom_site_symmetry_multiplicity
 _atom_site_fract_x
 _atom_site_fract_y
 _atom_site_fract_z
 _atom_site_occupancy
  S  S0  1  0.63379230  0.37300657  0.26758460  1
  S  S1  1  0.14457802  0.38379230  0.76758460  1
  S  S2  1  0.62300657  0.38379230  0.76758460  1
  S  S3  1  0.63379230  0.89457802  0.26758460  1
  Ga  Ga4  1  0.88282650  0.16072806  0.32145612  1
  Ga  Ga5  1  0.41072806  0.18862962  0.82145612  1
  Ga  Ga6  1  0.43862962  0.16072806  0.32145612  1
  Ga  Ga7  1  0.41072806  0.63282650  0.82145612  1
  Te  Te8  1  0.25255928  0.75255928  0.50511856  1
  Te  Te9  1  1.00255928  1.00255928  1.00511856  1
