# generated using pymatgen
data_AlBiBr6
_symmetry_space_group_name_H-M   'P 1'
_cell_length_a   8.25714373
_cell_length_b   8.13529183
_cell_length_c   10.00004698
_cell_angle_alpha   105.65156266
_cell_angle_beta   102.23478975
_cell_angle_gamma   97.31510368
_symmetry_Int_Tables_number   1
_chemical_formula_structural   AlBiBr6
_chemical_formula_sum   'Al2 Bi2 Br12'
_cell_volume   619.87800819
_cell_formula_units_Z   2
loop_
 _symmetry_equiv_pos_site_id
 _symmetry_equiv_pos_as_xyz
  1  'x, y, z'
loop_
 _atom_site_type_symbol
 _atom_site_label
 _atom_site_symmetry_multiplicity
 _atom_site_fract_x
 _atom_site_fract_y
 _atom_site_fract_z
 _atom_site_occupancy
  Al  Al0  1  0.70646392  0.31234625  0.14856781  1
  Al  Al1  1  0.29353608  0.68765375  0.85143219  1
  Br  Br2  1  0.68956861  0.44291938  0.64694262  1
  Br  Br3  1  0.31043139  0.55708062  0.35305738  1
  Br  Br4  1  0.42157709  0.24357125  0.03457118  1
  Br  Br5  1  0.57842291  0.75642875  0.96542882  1
  Br  Br6  1  0.79719559  0.15145215  0.29765113  1
  Br  Br7  1  0.20280441  0.84854785  0.70234887  1
  Br  Br8  1  0.83781471  0.26140204  0.95683751  1
  Br  Br9  1  0.16218529  0.73859796  0.04316249  1
  Br  Br10  1  0.78945268  0.60929136  0.28555697  1
  Br  Br11  1  0.21054732  0.39070864  0.71444303  1
  Br  Br12  1  0.69240242  0.93303394  0.58628639  1
  Br  Br13  1  0.30759758  0.06696606  0.41371361  1
  Bi  Bi14  1  0.51769598  0.19267823  0.70646175  1
  Bi  Bi15  1  0.48230402  0.80732177  0.29353825  1
