# generated using pymatgen
data_Mn2OF3
_symmetry_space_group_name_H-M   'P 1'
_cell_length_a   4.86790061
_cell_length_b   4.86790061
_cell_length_c   6.34776758
_cell_angle_alpha   90.00000000
_cell_angle_beta   90.00000000
_cell_angle_gamma   92.11301466
_symmetry_Int_Tables_number   1
_chemical_formula_structural   Mn2OF3
_chemical_formula_sum   'Mn4 O2 F6'
_cell_volume   150.31731869
_cell_formula_units_Z   2
loop_
 _symmetry_equiv_pos_site_id
 _symmetry_equiv_pos_as_xyz
  1  'x, y, z'
loop_
 _atom_site_type_symbol
 _atom_site_label
 _atom_site_symmetry_multiplicity
 _atom_site_fract_x
 _atom_site_fract_y
 _atom_site_fract_z
 _atom_site_occupancy
  Mn  Mn0  1  0.96451387  0.96451387  0.00000000  1
  Mn  Mn1  1  0.03548613  0.03548613  0.50000000  1
  Mn  Mn2  1  0.50000000  0.50000000  0.25000000  1
  Mn  Mn3  1  0.50000000  0.50000000  0.75000000  1
  O  O4  1  0.33421646  0.33421646  0.50000000  1
  O  O5  1  0.66578354  0.66578354  0.00000000  1
  F  F6  1  0.20343455  0.79656545  0.25000000  1
  F  F7  1  0.20343455  0.79656545  0.75000000  1
  F  F8  1  0.28145507  0.28145507  0.00000000  1
  F  F9  1  0.71854493  0.71854493  0.50000000  1
  F  F10  1  0.79656545  0.20343455  0.25000000  1
  F  F11  1  0.79656545  0.20343455  0.75000000  1
