# generated using pymatgen
data_NaH4BrO2
_symmetry_space_group_name_H-M   'P 1'
_cell_length_a   6.64369744
_cell_length_b   6.80048999
_cell_length_c   10.47120274
_cell_angle_alpha   90.00000000
_cell_angle_beta   90.00000000
_cell_angle_gamma   113.44597269
_symmetry_Int_Tables_number   1
_chemical_formula_structural   NaH4BrO2
_chemical_formula_sum   'Na4 H16 Br4 O8'
_cell_volume   434.03249088
_cell_formula_units_Z   4
loop_
 _symmetry_equiv_pos_site_id
 _symmetry_equiv_pos_as_xyz
  1  'x, y, z'
loop_
 _atom_site_type_symbol
 _atom_site_label
 _atom_site_symmetry_multiplicity
 _atom_site_fract_x
 _atom_site_fract_y
 _atom_site_fract_z
 _atom_site_occupancy
  H  H0  1  0.76518988  0.13483552  0.96251854  1
  H  H1  1  0.23481012  0.36516448  0.46251854  1
  H  H2  1  0.23481012  0.86516448  0.03748146  1
  H  H3  1  0.76518988  0.63483552  0.53748146  1
  H  H4  1  0.63517000  0.26501385  0.01575151  1
  H  H5  1  0.36483000  0.23498615  0.51575151  1
  H  H6  1  0.36483000  0.73498615  0.98424849  1
  H  H7  1  0.63517000  0.76501385  0.48424849  1
  H  H8  1  0.35849450  0.41543743  0.78961317  1
  H  H9  1  0.64150550  0.08456257  0.28961317  1
  H  H10  1  0.64150550  0.58456257  0.21038683  1
  H  H11  1  0.35849450  0.91543743  0.71038683  1
  H  H12  1  0.22543062  0.77714983  0.59788754  1
  H  H13  1  0.77456938  0.72285017  0.09788754  1
  H  H14  1  0.77456938  0.22285017  0.40211246  1
  H  H15  1  0.22543062  0.27714983  0.90211246  1
  O  O16  1  0.21662729  0.71970153  0.01072987  1
  O  O17  1  0.79153351  0.17790882  0.31418437  1
  O  O18  1  0.79153351  0.67790882  0.18581563  1
  O  O19  1  0.20846649  0.82209118  0.68581563  1
  O  O20  1  0.78337271  0.78029847  0.51072987  1
  O  O21  1  0.78337271  0.28029847  0.98927013  1
  O  O22  1  0.21662729  0.21970153  0.48927013  1
  O  O23  1  0.20846649  0.32209118  0.81418437  1
  Na  Na24  1  0.98685840  0.04327098  0.66772288  1
  Na  Na25  1  0.01314160  0.95672902  0.33227712  1
  Na  Na26  1  0.01314160  0.45672902  0.16772288  1
  Na  Na27  1  0.98685840  0.54327098  0.83227712  1
  Br  Br28  1  0.70074132  0.78981644  0.88538627  1
  Br  Br29  1  0.29925868  0.71018356  0.38538627  1
  Br  Br30  1  0.29925868  0.21018356  0.11461373  1
  Br  Br31  1  0.70074132  0.28981644  0.61461373  1
