# generated using pymatgen
data_Bi(BO2)3
_symmetry_space_group_name_H-M   'P 1'
_cell_length_a   4.41418129
_cell_length_b   4.41418129
_cell_length_c   6.65201702
_cell_angle_alpha   78.67315542
_cell_angle_beta   78.67315547
_cell_angle_gamma   72.53875066
_symmetry_Int_Tables_number   1
_chemical_formula_structural   Bi(BO2)3
_chemical_formula_sum   'Bi1 B3 O6'
_cell_volume   119.91712082
_cell_formula_units_Z   1
loop_
 _symmetry_equiv_pos_site_id
 _symmetry_equiv_pos_as_xyz
  1  'x, y, z'
loop_
 _atom_site_type_symbol
 _atom_site_label
 _atom_site_symmetry_multiplicity
 _atom_site_fract_x
 _atom_site_fract_y
 _atom_site_fract_z
 _atom_site_occupancy
  B  B0  1  0.71274275  0.28725725  0.50000000  1
  B  B1  1  0.80149585  0.69830376  0.69506549  1
  B  B2  1  0.30169624  0.19850415  0.30493451  1
  O  O3  1  0.90215663  0.52538698  0.87803710  1
  O  O4  1  0.40265422  0.30164464  0.45080332  1
  O  O5  1  0.69835536  0.59734578  0.54919668  1
  O  O6  1  0.79233181  0.02439782  0.68048028  1
  O  O7  1  0.97560218  0.20766819  0.31951972  1
  O  O8  1  0.47461302  0.09784337  0.12196290  1
  Bi  Bi9  1  0.97913194  0.02086806  0.00000000  1
