# generated using pymatgen
data_Ga3NO3
_symmetry_space_group_name_H-M   'P 1'
_cell_length_a   8.24298765
_cell_length_b   8.24298507
_cell_length_c   6.36602915
_cell_angle_alpha   90.00000000
_cell_angle_beta   90.00000000
_cell_angle_gamma   120.00061217
_symmetry_Int_Tables_number   1
_chemical_formula_structural   Ga3NO3
_chemical_formula_sum   'Ga12 N4 O12'
_cell_volume   374.59824452
_cell_formula_units_Z   4
loop_
 _symmetry_equiv_pos_site_id
 _symmetry_equiv_pos_as_xyz
  1  'x, y, z'
loop_
 _atom_site_type_symbol
 _atom_site_label
 _atom_site_symmetry_multiplicity
 _atom_site_fract_x
 _atom_site_fract_y
 _atom_site_fract_z
 _atom_site_occupancy
  Ga  Ga0  1  0.17126536  0.76737472  0.62500000  1
  Ga  Ga1  1  0.17699074  0.76473001  0.12500000  1
  Ga  Ga2  1  0.23263456  0.40391466  0.62500000  1
  Ga  Ga3  1  0.23525474  0.41225715  0.12500000  1
  Ga  Ga4  1  0.58773080  0.82300125  0.12500000  1
  Ga  Ga5  1  0.59607796  0.82872588  0.62500000  1
  Ga  Ga6  1  0.40390132  0.16564539  0.38203729  1
  Ga  Ga7  1  0.40390132  0.16564539  0.86796271  1
  Ga  Ga8  1  0.76173062  0.59610307  0.38204135  1
  Ga  Ga9  1  0.76173062  0.59610307  0.86795865  1
  Ga  Ga10  1  0.83435905  0.23825902  0.86795765  1
  Ga  Ga11  1  0.83435905  0.23825902  0.38204235  1
  N  N12  1  0.33332549  0.66666166  0.12500000  1
  N  N13  1  0.33554832  0.02535453  0.62500000  1
  N  N14  1  0.68974490  0.66441595  0.62500000  1
  N  N15  1  0.97465623  0.31023363  0.62500000  1
  O  O16  1  0.02653520  0.69555150  0.37139401  1
  O  O17  1  0.02653520  0.69555150  0.87860599  1
  O  O18  1  0.33332134  0.66667386  0.62500000  1
  O  O19  1  0.30443841  0.33098889  0.37139254  1
  O  O20  1  0.30443841  0.33098889  0.87860746  1
  O  O21  1  0.66900396  0.97345415  0.87860530  1
  O  O22  1  0.66900396  0.97345415  0.37139470  1
  O  O23  1  0.32350464  0.03326222  0.12500000  1
  O  O24  1  0.70974298  0.67648947  0.12500000  1
  O  O25  1  0.66666957  0.33333600  0.89326350  1
  O  O26  1  0.66666957  0.33333600  0.35673650  1
  O  O27  1  0.96672672  0.29022795  0.12500000  1
