# generated using pymatgen
data_RbB3O5
_symmetry_space_group_name_H-M   'P 1'
_cell_length_a   6.52762478
_cell_length_b   8.53779202
_cell_length_c   8.79847997
_cell_angle_alpha   90.00000000
_cell_angle_beta   90.00000000
_cell_angle_gamma   90.00000000
_symmetry_Int_Tables_number   1
_chemical_formula_structural   RbB3O5
_chemical_formula_sum   'Rb4 B12 O20'
_cell_volume   490.35251070
_cell_formula_units_Z   4
loop_
 _symmetry_equiv_pos_site_id
 _symmetry_equiv_pos_as_xyz
  1  'x, y, z'
loop_
 _atom_site_type_symbol
 _atom_site_label
 _atom_site_symmetry_multiplicity
 _atom_site_fract_x
 _atom_site_fract_y
 _atom_site_fract_z
 _atom_site_occupancy
  B  B0  1  0.87658169  0.78908375  0.29895149  1
  B  B1  1  0.37658169  0.71091625  0.70104851  1
  B  B2  1  0.12341831  0.28908375  0.20104851  1
  B  B3  1  0.62341831  0.21091625  0.79895149  1
  B  B4  1  0.12843324  0.00049587  0.24589462  1
  B  B5  1  0.62843324  0.49950413  0.75410538  1
  B  B6  1  0.78661203  0.61678107  0.50753241  1
  B  B7  1  0.28661203  0.88321893  0.49246759  1
  B  B8  1  0.21338797  0.11678107  0.99246759  1
  B  B9  1  0.71338797  0.38321893  0.00753241  1
  B  B10  1  0.87156676  0.50049587  0.25410538  1
  B  B11  1  0.37156676  0.99950413  0.74589462  1
  O  O12  1  0.79037202  0.49066415  0.41163355  1
  O  O13  1  0.91504034  0.93859432  0.24794420  1
  O  O14  1  0.58495966  0.06140568  0.74794420  1
  O  O15  1  0.41504034  0.56140568  0.75205580  1
  O  O16  1  0.75869600  0.60295518  0.66084140  1
  O  O17  1  0.25869600  0.89704482  0.33915860  1
  O  O18  1  0.24130400  0.10295518  0.83915860  1
  O  O19  1  0.74130400  0.39704482  0.16084140  1
  O  O20  1  0.67228749  0.23220156  0.95203685  1
  O  O21  1  0.17228749  0.26779844  0.04796315  1
  O  O22  1  0.32771251  0.73220156  0.54796315  1
  O  O23  1  0.82771251  0.76779844  0.45203685  1
  O  O24  1  0.20962798  0.99066415  0.08836645  1
  O  O25  1  0.70962798  0.50933585  0.91163355  1
  O  O26  1  0.87561212  0.66502340  0.19958436  1
  O  O27  1  0.37561212  0.83497660  0.80041564  1
  O  O28  1  0.12438788  0.16502340  0.30041564  1
  O  O29  1  0.62438788  0.33497660  0.69958436  1
  O  O30  1  0.08495966  0.43859432  0.25205580  1
  O  O31  1  0.29037202  0.00933585  0.58836645  1
  Rb  Rb32  1  0.36320045  0.65637746  0.10658073  1
  Rb  Rb33  1  0.86320045  0.84362254  0.89341927  1
  Rb  Rb34  1  0.63679955  0.15637746  0.39341927  1
  Rb  Rb35  1  0.13679955  0.34362254  0.60658073  1
