# generated using pymatgen
data_MgH2
_symmetry_space_group_name_H-M   'P 1'
_cell_length_a   4.51143332
_cell_length_b   4.92307826
_cell_length_c   5.42824526
_cell_angle_alpha   90.00000000
_cell_angle_beta   90.00000000
_cell_angle_gamma   90.00000000
_symmetry_Int_Tables_number   1
_chemical_formula_structural   MgH2
_chemical_formula_sum   'Mg4 H8'
_cell_volume   120.56208337
_cell_formula_units_Z   4
loop_
 _symmetry_equiv_pos_site_id
 _symmetry_equiv_pos_as_xyz
  1  'x, y, z'
loop_
 _atom_site_type_symbol
 _atom_site_label
 _atom_site_symmetry_multiplicity
 _atom_site_fract_x
 _atom_site_fract_y
 _atom_site_fract_z
 _atom_site_occupancy
  H  H0  1  0.72730596  0.42047421  0.10869413  1
  H  H1  1  0.22730596  0.57952579  0.39130587  1
  H  H2  1  0.77269404  0.92047421  0.39130587  1
  H  H3  1  0.27269404  0.07952579  0.10869413  1
  H  H4  1  0.72730596  0.92047421  0.89130587  1
  H  H5  1  0.22730596  0.07952579  0.60869413  1
  H  H6  1  0.77269404  0.42047421  0.60869413  1
  H  H7  1  0.27269404  0.57952579  0.89130587  1
  Mg  Mg8  1  0.50000000  0.75000000  0.17026533  1
  Mg  Mg9  1  0.00000000  0.25000000  0.32973467  1
  Mg  Mg10  1  0.50000000  0.25000000  0.82973467  1
  Mg  Mg11  1  0.00000000  0.75000000  0.67026533  1
