# generated using pymatgen
data_SiO2
_symmetry_space_group_name_H-M   'P 1'
_cell_length_a   7.31770961
_cell_length_b   7.32892461
_cell_length_c   7.30285916
_cell_angle_alpha   90.00000000
_cell_angle_beta   90.00000000
_cell_angle_gamma   90.00000000
_symmetry_Int_Tables_number   1
_chemical_formula_structural   SiO2
_chemical_formula_sum   'Si8 O16'
_cell_volume   391.65921641
_cell_formula_units_Z   8
loop_
 _symmetry_equiv_pos_site_id
 _symmetry_equiv_pos_as_xyz
  1  'x, y, z'
loop_
 _atom_site_type_symbol
 _atom_site_label
 _atom_site_symmetry_multiplicity
 _atom_site_fract_x
 _atom_site_fract_y
 _atom_site_fract_z
 _atom_site_occupancy
  Si  Si0  1  0.02394632  0.01650201  0.99884042  1
  Si  Si1  1  0.75550916  0.22532545  0.73272541  1
  Si  Si2  1  0.25550916  0.27467455  0.26727459  1
  Si  Si3  1  0.47605368  0.98349799  0.49884042  1
  Si  Si4  1  0.52394632  0.48349799  0.00115958  1
  Si  Si5  1  0.24449084  0.72532545  0.76727459  1
  Si  Si6  1  0.97605368  0.51650201  0.50115958  1
  Si  Si7  1  0.74449084  0.77467455  0.23272541  1
  O  O8  1  0.07603540  0.61760368  0.67150529  1
  O  O9  1  0.92396460  0.11760368  0.82849471  1
  O  O10  1  0.87455882  0.92282026  0.13253284  1
  O  O11  1  0.66495743  0.63545103  0.07957618  1
  O  O12  1  0.62544118  0.07717974  0.63253284  1
  O  O13  1  0.83504257  0.36454897  0.57957618  1
  O  O14  1  0.36105184  0.83353227  0.61340803  1
  O  O15  1  0.13894816  0.16646773  0.11340803  1
  O  O16  1  0.57603540  0.88239632  0.32849471  1
  O  O17  1  0.37455882  0.57717974  0.86746716  1
  O  O18  1  0.33504257  0.13545103  0.42042382  1
  O  O19  1  0.42396460  0.38239632  0.17150529  1
  O  O20  1  0.86105184  0.66646773  0.38659197  1
  O  O21  1  0.16495743  0.86454897  0.92042382  1
  O  O22  1  0.63894816  0.33353227  0.88659197  1
  O  O23  1  0.12544118  0.42282026  0.36746716  1
