# generated using pymatgen
data_Li6Cu(B2O5)2
_symmetry_space_group_name_H-M   'P 1'
_cell_length_a   4.79762572
_cell_length_b   6.46157612
_cell_length_c   7.28121553
_cell_angle_alpha   80.53211886
_cell_angle_beta   71.25506091
_cell_angle_gamma   75.12349231
_symmetry_Int_Tables_number   1
_chemical_formula_structural   Li6Cu(B2O5)2
_chemical_formula_sum   'Li6 Cu1 B4 O10'
_cell_volume   205.75168274
_cell_formula_units_Z   1
loop_
 _symmetry_equiv_pos_site_id
 _symmetry_equiv_pos_as_xyz
  1  'x, y, z'
loop_
 _atom_site_type_symbol
 _atom_site_label
 _atom_site_symmetry_multiplicity
 _atom_site_fract_x
 _atom_site_fract_y
 _atom_site_fract_z
 _atom_site_occupancy
  Li  Li0  1  0.45892603  0.63956391  0.27853235  1
  Li  Li1  1  0.74272793  0.84199189  0.99599454  1
  Li  Li2  1  0.89772082  0.97106870  0.62702115  1
  Li  Li3  1  0.86670131  0.36794083  0.43770365  1
  Li  Li4  1  0.94377654  0.83325792  0.34230876  1
  Li  Li5  1  0.51931352  0.15071912  0.22054556  1
  Cu  Cu6  1  0.75036789  0.32410612  0.84179180  1
  B  B7  1  0.38441466  0.11151704  0.61896154  1
  B  B8  1  0.13722667  0.54180521  0.05762543  1
  B  B9  1  0.28172067  0.60737227  0.67973318  1
  B  B10  1  0.21754122  0.01846006  0.99083563  1
  O  O11  1  0.63359528  0.08753832  0.46068664  1
  O  O12  1  0.57117002  0.49553314  0.65238716  1
  O  O13  1  0.09692425  0.20249834  0.61143248  1
  O  O14  1  0.41336136  0.42921908  0.07492886  1
  O  O15  1  0.43920233  0.02750735  0.80396649  1
  O  O16  1  0.08067585  0.62064097  0.87518000  1
  O  O17  1  0.91410657  0.08712439  0.01148591  1
  O  O18  1  0.89456457  0.59824602  0.21614648  1
  O  O19  1  0.17074078  0.71300458  0.53309765  1
  O  O20  1  0.32542173  0.92948473  0.14413476  1
