# generated using pymatgen
data_YInO3
_symmetry_space_group_name_H-M   'P 1'
_cell_length_a   6.36381390
_cell_length_b   6.36381387
_cell_length_c   12.38968577
_cell_angle_alpha   90.00000000
_cell_angle_beta   90.00000000
_cell_angle_gamma   120.00000015
_symmetry_Int_Tables_number   1
_chemical_formula_structural   YInO3
_chemical_formula_sum   'Y6 In6 O18'
_cell_volume   434.53610054
_cell_formula_units_Z   6
loop_
 _symmetry_equiv_pos_site_id
 _symmetry_equiv_pos_as_xyz
  1  'x, y, z'
loop_
 _atom_site_type_symbol
 _atom_site_label
 _atom_site_symmetry_multiplicity
 _atom_site_fract_x
 _atom_site_fract_y
 _atom_site_fract_z
 _atom_site_occupancy
  Y  Y0  1  0.00000000  0.00000000  0.27104984  1
  Y  Y1  1  0.00000000  0.00000000  0.77104984  1
  Y  Y2  1  0.33333300  0.66666700  0.23560570  1
  Y  Y3  1  0.66666700  0.33333300  0.73560570  1
  Y  Y4  1  0.33333300  0.66666700  0.73560570  1
  Y  Y5  1  0.66666700  0.33333300  0.23560570  1
  In  In6  1  0.33351910  0.00000000  0.00110321  1
  In  In7  1  0.33351910  0.33351910  0.50110321  1
  In  In8  1  0.00000000  0.66648090  0.50110321  1
  In  In9  1  1.00000000  0.33351910  0.00110321  1
  In  In10  1  0.66648090  0.66648090  0.00110321  1
  In  In11  1  0.66648090  0.00000000  0.50110321  1
  O  O12  1  0.30704778  0.00000000  0.17276664  1
  O  O13  1  0.30704778  0.30704778  0.67276664  1
  O  O14  1  1.00000000  0.69295222  0.67276664  1
  O  O15  1  0.00000000  0.30704778  0.17276664  1
  O  O16  1  0.69295222  0.69295222  0.17276664  1
  O  O17  1  0.69295222  0.00000000  0.67276664  1
  O  O18  1  0.63934723  0.00000000  0.33126146  1
  O  O19  1  0.63934723  0.63934723  0.83126146  1
  O  O20  1  0.00000000  0.36065277  0.83126146  1
  O  O21  1  1.00000000  0.63934723  0.33126146  1
  O  O22  1  0.36065277  0.36065277  0.33126146  1
  O  O23  1  0.36065277  0.00000000  0.83126146  1
  O  O24  1  0.00000000  0.00000000  0.46882059  1
  O  O25  1  0.00000000  0.00000000  0.96882059  1
  O  O26  1  0.33333300  0.66666700  0.03036213  1
  O  O27  1  0.66666700  0.33333300  0.53036213  1
  O  O28  1  0.33333300  0.66666700  0.53036213  1
  O  O29  1  0.66666700  0.33333300  0.03036213  1
