# generated using pymatgen
data_ReH3O5
_symmetry_space_group_name_H-M   'P 1'
_cell_length_a   7.16313868
_cell_length_b   7.62478116
_cell_length_c   7.68254841
_cell_angle_alpha   133.51185357
_cell_angle_beta   131.19558725
_cell_angle_gamma   70.63462582
_symmetry_Int_Tables_number   1
_chemical_formula_structural   ReH3O5
_chemical_formula_sum   'Re2 H6 O10'
_cell_volume   223.19713706
_cell_formula_units_Z   2
loop_
 _symmetry_equiv_pos_site_id
 _symmetry_equiv_pos_as_xyz
  1  'x, y, z'
loop_
 _atom_site_type_symbol
 _atom_site_label
 _atom_site_symmetry_multiplicity
 _atom_site_fract_x
 _atom_site_fract_y
 _atom_site_fract_z
 _atom_site_occupancy
  Re  Re0  1  0.39369866  0.12589800  0.27155273  1
  Re  Re1  1  0.61707078  0.89166695  0.75945662  1
  H  H2  1  0.77151117  0.72542349  0.22279072  1
  H  H3  1  0.79360357  0.44320524  0.10800119  1
  H  H4  1  0.05753706  0.65072205  0.31884405  1
  H  H5  1  0.23663484  0.51281654  0.94551164  1
  H  H6  1  0.93814059  0.34269085  0.65346407  1
  H  H7  1  0.14431583  0.32586167  0.59607251  1
  O  O8  1  0.88760077  0.62332460  0.26532325  1
  O  O9  1  0.12554653  0.35345357  0.73331579  1
  O  O10  1  0.69468351  0.33280927  0.58174043  1
  O  O11  1  0.24968727  0.09403427  0.95806828  1
  O  O12  1  0.62771296  0.18932326  0.88183273  1
  O  O13  1  0.82544257  0.75459503  0.67915443  1
  O  O14  1  0.30667917  0.69871650  0.41696697  1
  O  O15  1  0.71858417  0.91672716  0.05549809  1
  O  O16  1  0.43417303  0.83642979  0.17244942  1
  O  O17  1  0.20192854  0.25317375  0.38482910  1
