# generated using pymatgen
data_Re2H4O9
_symmetry_space_group_name_H-M   'P 1'
_cell_length_a   9.02820253
_cell_length_b   9.11712369
_cell_length_c   4.93597393
_cell_angle_alpha   90.00000000
_cell_angle_beta   107.21682718
_cell_angle_gamma   90.00000000
_symmetry_Int_Tables_number   1
_chemical_formula_structural   Re2H4O9
_chemical_formula_sum   'Re4 H8 O18'
_cell_volume   388.08104822
_cell_formula_units_Z   2
loop_
 _symmetry_equiv_pos_site_id
 _symmetry_equiv_pos_as_xyz
  1  'x, y, z'
loop_
 _atom_site_type_symbol
 _atom_site_label
 _atom_site_symmetry_multiplicity
 _atom_site_fract_x
 _atom_site_fract_y
 _atom_site_fract_z
 _atom_site_occupancy
  Re  Re0  1  0.11636563  0.23727676  0.97816467  1
  Re  Re1  1  0.88363437  0.73727676  0.02183533  1
  Re  Re2  1  0.55435233  0.23991405  0.99123663  1
  Re  Re3  1  0.44564767  0.73991405  0.00876337  1
  H  H4  1  0.88224296  0.58363565  0.45278223  1
  H  H5  1  0.11775704  0.08363565  0.54721777  1
  H  H6  1  0.18814475  0.40468737  0.47092316  1
  H  H7  1  0.28703440  0.47572298  0.25986406  1
  H  H8  1  0.81185525  0.90468737  0.52907684  1
  H  H9  1  0.71296560  0.97572298  0.74013594  1
  H  H10  1  0.71672299  0.53829046  0.69483414  1
  H  H11  1  0.28327701  0.03829046  0.30516586  1
  O  O12  1  0.35901626  0.21453267  -0.00051717  1
  O  O13  1  0.64098374  0.71453267  0.00051717  1
  O  O14  1  0.67826057  0.25083637  0.33316939  1
  O  O15  1  0.32173943  0.75083637  0.66683061  1
  O  O16  1  0.94374075  0.26086096  0.05086409  1
  O  O17  1  0.05625925  0.76086096  0.94913591  1
  O  O18  1  0.12125924  0.38002989  0.74365671  1
  O  O19  1  0.87874076  0.88002989  0.25634329  1
  O  O20  1  0.92901380  0.58761387  0.28366658  1
  O  O21  1  0.07098620  0.08761387  0.71633342  1
  O  O22  1  0.57081619  0.40024269  0.81061327  1
  O  O23  1  0.42918381  0.90024269  0.18938673  1
  O  O24  1  0.39579731  0.58899578  0.18345026  1
  O  O25  1  0.60420269  0.08899578  0.81654974  1
  O  O26  1  0.22620419  0.38982329  0.30215745  1
  O  O27  1  0.77379581  0.88982329  0.69784255  1
  O  O28  1  0.81053781  0.59543720  0.70106379  1
  O  O29  1  0.18946219  0.09543720  0.29893621  1
