# generated using pymatgen
data_SiH4
_symmetry_space_group_name_H-M   'P 1'
_cell_length_a   5.04114828
_cell_length_b   7.65803465
_cell_length_c   7.61352905
_cell_angle_alpha   103.68012037
_cell_angle_beta   90.00000000
_cell_angle_gamma   90.00000000
_symmetry_Int_Tables_number   1
_chemical_formula_structural   SiH4
_chemical_formula_sum   'Si4 H16'
_cell_volume   285.58426568
_cell_formula_units_Z   4
loop_
 _symmetry_equiv_pos_site_id
 _symmetry_equiv_pos_as_xyz
  1  'x, y, z'
loop_
 _atom_site_type_symbol
 _atom_site_label
 _atom_site_symmetry_multiplicity
 _atom_site_fract_x
 _atom_site_fract_y
 _atom_site_fract_z
 _atom_site_occupancy
  H  H0  1  0.06253473  0.02141348  0.20511476  1
  H  H1  1  0.56253473  0.47858652  0.79488524  1
  H  H2  1  0.93746527  0.97858652  0.79488524  1
  H  H3  1  0.43746527  0.52141348  0.20511476  1
  H  H4  1  0.57235689  0.21030144  0.08722603  1
  H  H5  1  0.07235689  0.28969856  0.91277397  1
  H  H6  1  0.42764311  0.78969856  0.91277397  1
  H  H7  1  0.92764311  0.71030144  0.08722603  1
  H  H8  1  0.85391818  0.41407321  0.30334574  1
  H  H9  1  0.35391818  0.08592679  0.69665426  1
  H  H10  1  0.14608182  0.58592679  0.69665426  1
  H  H11  1  0.64608182  0.91407321  0.30334574  1
  H  H12  1  0.43363709  0.31176143  0.40098587  1
  H  H13  1  0.93363709  0.18823857  0.59901413  1
  H  H14  1  0.56636291  0.68823857  0.59901413  1
  H  H15  1  0.06636291  0.81176143  0.40098587  1
  Si  Si16  1  0.92555310  0.86439381  0.24898650  1
  Si  Si17  1  0.42555310  0.63560619  0.75101350  1
  Si  Si18  1  0.07444690  0.13560619  0.75101350  1
  Si  Si19  1  0.57444690  0.36439381  0.24898650  1
