# generated using pymatgen
data_BSF7
_symmetry_space_group_name_H-M   'P 1'
_cell_length_a   5.81523185
_cell_length_b   9.08927640
_cell_length_c   9.76384108
_cell_angle_alpha   90.00000000
_cell_angle_beta   90.00000000
_cell_angle_gamma   90.00000000
_symmetry_Int_Tables_number   1
_chemical_formula_structural   BSF7
_chemical_formula_sum   'B4 S4 F28'
_cell_volume   516.08002132
_cell_formula_units_Z   4
loop_
 _symmetry_equiv_pos_site_id
 _symmetry_equiv_pos_as_xyz
  1  'x, y, z'
loop_
 _atom_site_type_symbol
 _atom_site_label
 _atom_site_symmetry_multiplicity
 _atom_site_fract_x
 _atom_site_fract_y
 _atom_site_fract_z
 _atom_site_occupancy
  B  B0  1  0.75000000  0.16014346  0.48018564  1
  B  B1  1  0.75000000  0.33985654  0.98018564  1
  B  B2  1  0.25000000  0.66014346  0.01981436  1
  B  B3  1  0.25000000  0.83985654  0.51981436  1
  F  F4  1  0.05046700  0.73822768  0.06476980  1
  F  F5  1  0.44953300  0.76177232  0.56476980  1
  F  F6  1  0.94953300  0.23822768  0.43523020  1
  F  F7  1  0.55046700  0.26177232  0.93523020  1
  F  F8  1  0.05097884  0.05575430  0.19810785  1
  F  F9  1  0.55097884  0.94424570  0.80189215  1
  F  F10  1  0.94902116  0.55575430  0.30189215  1
  F  F11  1  0.44902116  0.44424570  0.69810785  1
  F  F12  1  0.94902116  0.94424570  0.80189215  1
  F  F13  1  0.44902116  0.05575430  0.19810785  1
  F  F14  1  0.05097884  0.44424570  0.69810785  1
  F  F15  1  0.55097884  0.55575430  0.30189215  1
  F  F16  1  0.25000000  0.27351481  0.22984999  1
  F  F17  1  0.75000000  0.72648519  0.77015001  1
  F  F18  1  0.75000000  0.77351481  0.27015001  1
  F  F19  1  0.25000000  0.22648519  0.72984999  1
  F  F20  1  0.75000000  0.15201002  0.62586305  1
  F  F21  1  0.25000000  0.84798998  0.37413695  1
  F  F22  1  0.25000000  0.65201002  0.87413695  1
  F  F23  1  0.75000000  0.34798998  0.12586305  1
  F  F24  1  0.75000000  0.01826506  0.42515146  1
  F  F25  1  0.25000000  0.98173494  0.57484854  1
  F  F26  1  0.25000000  0.51826506  0.07484854  1
  F  F27  1  0.75000000  0.48173494  0.92515146  1
  F  F28  1  0.55046700  0.23822768  0.43523020  1
  F  F29  1  0.05046700  0.76177232  0.56476980  1
  F  F30  1  0.44953300  0.73822768  0.06476980  1
  F  F31  1  0.94953300  0.26177232  0.93523020  1
  S  S32  1  0.25000000  0.38454009  0.78925281  1
  S  S33  1  0.75000000  0.61545991  0.21074719  1
  S  S34  1  0.75000000  0.88454009  0.71074719  1
  S  S35  1  0.25000000  0.11545991  0.28925281  1
