# generated using pymatgen
data_B4PbO7
_symmetry_space_group_name_H-M   'P 1'
_cell_length_a   4.29169050
_cell_length_b   4.50342662
_cell_length_c   10.97302073
_cell_angle_alpha   90.00000000
_cell_angle_beta   90.00000000
_cell_angle_gamma   90.00000000
_symmetry_Int_Tables_number   1
_chemical_formula_structural   B4PbO7
_chemical_formula_sum   'B8 Pb2 O14'
_cell_volume   212.07900887
_cell_formula_units_Z   2
loop_
 _symmetry_equiv_pos_site_id
 _symmetry_equiv_pos_as_xyz
  1  'x, y, z'
loop_
 _atom_site_type_symbol
 _atom_site_label
 _atom_site_symmetry_multiplicity
 _atom_site_fract_x
 _atom_site_fract_y
 _atom_site_fract_z
 _atom_site_occupancy
  B  B0  1  0.99601301  0.17604521  0.75153114  1
  B  B1  1  0.49601301  0.82395479  0.74846886  1
  B  B2  1  0.02410257  0.67418825  0.62213725  1
  B  B3  1  0.52410257  0.32581175  0.87786275  1
  B  B4  1  0.52410257  0.32581175  0.12213725  1
  B  B5  1  0.02410257  0.67418825  0.37786275  1
  B  B6  1  0.49601301  0.82395479  0.25153114  1
  B  B7  1  0.99601301  0.17604521  0.24846886  1
  O  O8  1  0.45292731  0.63838772  0.85473891  1
  O  O9  1  0.35440306  0.73344532  0.63691817  1
  O  O10  1  0.85440306  0.26655468  0.86308183  1
  O  O11  1  0.85440306  0.26655468  0.13691817  1
  O  O12  1  0.84967609  0.87328973  0.28170434  1
  O  O13  1  0.34967609  0.12671027  0.21829566  1
  O  O14  1  0.34967609  0.12671027  0.78170434  1
  O  O15  1  0.84967609  0.87328973  0.71829566  1
  O  O16  1  0.95292731  0.36161228  0.35473891  1
  O  O17  1  0.45292731  0.63838772  0.14526109  1
  O  O18  1  0.91715985  0.76071458  0.50000000  1
  O  O19  1  0.41715985  0.23928542  0.00000000  1
  O  O20  1  0.35440306  0.73344532  0.36308183  1
  O  O21  1  0.95292731  0.36161228  0.64526109  1
  Pb  Pb22  1  0.53439607  0.19493996  0.50000000  1
  Pb  Pb23  1  0.03439607  0.80506004  0.00000000  1
