# generated using pymatgen
data_Ca5P8
_symmetry_space_group_name_H-M   'P 1'
_cell_length_a   6.89475632
_cell_length_b   6.89475675
_cell_length_c   7.51671768
_cell_angle_alpha   99.02275072
_cell_angle_beta   99.02275131
_cell_angle_gamma   119.64125471
_symmetry_Int_Tables_number   1
_chemical_formula_structural   Ca5P8
_chemical_formula_sum   'Ca5 P8'
_cell_volume   295.06794337
_cell_formula_units_Z   1
loop_
 _symmetry_equiv_pos_site_id
 _symmetry_equiv_pos_as_xyz
  1  'x, y, z'
loop_
 _atom_site_type_symbol
 _atom_site_label
 _atom_site_symmetry_multiplicity
 _atom_site_fract_x
 _atom_site_fract_y
 _atom_site_fract_z
 _atom_site_occupancy
  Ca  Ca0  1  0.50000000  0.50000000  0.50000000  1
  Ca  Ca1  1  0.82473940  0.17526060  0.50000000  1
  Ca  Ca2  1  0.17526060  0.82473940  0.50000000  1
  Ca  Ca3  1  0.33465020  0.66534980  0.00000000  1
  Ca  Ca4  1  0.66534980  0.33465020  0.00000000  1
  P  P5  1  0.22226800  0.22226800  0.75802534  1
  P  P6  1  0.77773200  0.77773200  0.24197466  1
  P  P7  1  0.61540787  0.92117265  0.76024652  1
  P  P8  1  0.07882735  0.38459213  0.23975348  1
  P  P9  1  0.38459213  0.07882735  0.23975348  1
  P  P10  1  0.92117265  0.61540787  0.76024652  1
  P  P11  1  0.94758092  0.94758092  0.83652414  1
  P  P12  1  0.05241908  0.05241908  0.16347586  1
