# generated using pymatgen
data_MgSiN2
_symmetry_space_group_name_H-M   'P 1'
_cell_length_a   4.62819877
_cell_length_b   4.62819877
_cell_length_c   5.19835111
_cell_angle_alpha   116.43359322
_cell_angle_beta   116.43359330
_cell_angle_gamma   90.00000009
_symmetry_Int_Tables_number   1
_chemical_formula_structural   MgSiN2
_chemical_formula_sum   'Mg2 Si2 N4'
_cell_volume   86.51421920
_cell_formula_units_Z   2
loop_
 _symmetry_equiv_pos_site_id
 _symmetry_equiv_pos_as_xyz
  1  'x, y, z'
loop_
 _atom_site_type_symbol
 _atom_site_label
 _atom_site_symmetry_multiplicity
 _atom_site_fract_x
 _atom_site_fract_y
 _atom_site_fract_z
 _atom_site_occupancy
  N  N0  1  0.81190771  0.87500000  0.25000000  1
  N  N1  1  0.62500000  0.18809229  0.75000000  1
  N  N2  1  0.43809229  0.37500000  0.25000000  1
  N  N3  1  0.12500000  0.56190771  0.75000000  1
  Mg  Mg4  1  0.25000000  0.75000000  0.50000000  1
  Mg  Mg5  1  0.00000000  0.00000000  0.00000000  1
  Si  Si6  1  0.50000000  0.50000000  0.00000000  1
  Si  Si7  1  0.75000000  0.25000000  0.50000000  1
