# generated using pymatgen
data_Nb(SeCl)2
_symmetry_space_group_name_H-M   'P 1'
_cell_length_a   6.44558481
_cell_length_b   6.61402659
_cell_length_c   7.95206478
_cell_angle_alpha   67.42708720
_cell_angle_beta   69.80937010
_cell_angle_gamma   60.88820203
_symmetry_Int_Tables_number   1
_chemical_formula_structural   Nb(SeCl)2
_chemical_formula_sum   'Nb2 Se4 Cl4'
_cell_volume   268.16776531
_cell_formula_units_Z   2
loop_
 _symmetry_equiv_pos_site_id
 _symmetry_equiv_pos_as_xyz
  1  'x, y, z'
loop_
 _atom_site_type_symbol
 _atom_site_label
 _atom_site_symmetry_multiplicity
 _atom_site_fract_x
 _atom_site_fract_y
 _atom_site_fract_z
 _atom_site_occupancy
  Cl  Cl0  1  0.85232937  0.51162755  0.19924731  1
  Cl  Cl1  1  0.14767063  0.48837245  0.80075269  1
  Cl  Cl2  1  0.43188221  0.35347463  0.19965754  1
  Cl  Cl3  1  0.56811779  0.64652537  0.80034246  1
  Se  Se4  1  0.92694069  0.89619278  0.30494146  1
  Se  Se5  1  0.07305931  0.10380722  0.69505854  1
  Se  Se6  1  0.72912320  0.04391438  0.87029612  1
  Se  Se7  1  0.27087680  0.95608562  0.12970388  1
  Nb  Nb8  1  0.87063534  0.25911932  1.00002300  1
  Nb  Nb9  1  0.12936466  0.74088068  -0.00002300  1
