# generated using pymatgen
data_Cs2CeO3
_symmetry_space_group_name_H-M   'P 1'
_cell_length_a   7.02260365
_cell_length_b   7.02260365
_cell_length_c   6.54551856
_cell_angle_alpha   90.00000000
_cell_angle_beta   90.00000000
_cell_angle_gamma   112.26243594
_symmetry_Int_Tables_number   1
_chemical_formula_structural   Cs2CeO3
_chemical_formula_sum   'Cs4 Ce2 O6'
_cell_volume   298.74264882
_cell_formula_units_Z   2
loop_
 _symmetry_equiv_pos_site_id
 _symmetry_equiv_pos_as_xyz
  1  'x, y, z'
loop_
 _atom_site_type_symbol
 _atom_site_label
 _atom_site_symmetry_multiplicity
 _atom_site_fract_x
 _atom_site_fract_y
 _atom_site_fract_z
 _atom_site_occupancy
  Cs  Cs0  1  0.47676968  0.80656812  0.25529586  1
  Cs  Cs1  1  0.19343188  0.52323032  0.75529586  1
  Cs  Cs2  1  0.52323032  0.19343188  0.75529586  1
  Cs  Cs3  1  0.80656812  0.47676968  0.25529586  1
  Ce  Ce4  1  0.09192446  0.09192446  0.23759891  1
  Ce  Ce5  1  0.90807554  0.90807554  0.73759891  1
  O  O6  1  0.13023967  0.89019683  0.49543234  1
  O  O7  1  0.10980317  0.86976033  0.99543234  1
  O  O8  1  0.64878814  0.64878814  0.69307569  1
  O  O9  1  0.35121186  0.35121186  0.19307569  1
  O  O10  1  0.86976033  0.10980317  0.99543234  1
  O  O11  1  0.89019683  0.13023967  0.49543234  1
