# generated using pymatgen
data_RbGeCl3
_symmetry_space_group_name_H-M   'P 1'
_cell_length_a   5.91436983
_cell_length_b   7.19642288
_cell_length_c   8.36143007
_cell_angle_alpha   90.00000000
_cell_angle_beta   107.59318060
_cell_angle_gamma   90.00000000
_symmetry_Int_Tables_number   1
_chemical_formula_structural   RbGeCl3
_chemical_formula_sum   'Rb2 Ge2 Cl6'
_cell_volume   339.23596624
_cell_formula_units_Z   2
loop_
 _symmetry_equiv_pos_site_id
 _symmetry_equiv_pos_as_xyz
  1  'x, y, z'
loop_
 _atom_site_type_symbol
 _atom_site_label
 _atom_site_symmetry_multiplicity
 _atom_site_fract_x
 _atom_site_fract_y
 _atom_site_fract_z
 _atom_site_occupancy
  Cl  Cl0  1  0.66936697  0.25000000  0.11740187  1
  Cl  Cl1  1  0.33063303  0.75000000  0.88259813  1
  Cl  Cl2  1  0.81684112  0.50752396  0.67650347  1
  Cl  Cl3  1  0.18315888  0.00752396  0.32349653  1
  Cl  Cl4  1  0.81684112  0.99247604  0.67650347  1
  Cl  Cl5  1  0.18315888  0.49247604  0.32349653  1
  Ge  Ge6  1  0.07167096  0.25000000  0.12686719  1
  Ge  Ge7  1  0.92832904  0.75000000  0.87313281  1
  Rb  Rb8  1  0.32719040  0.25000000  0.70070423  1
  Rb  Rb9  1  0.67280960  0.75000000  0.29929577  1
