# generated using pymatgen
data_H4OF2
_symmetry_space_group_name_H-M   'P 1'
_cell_length_a   3.59314875
_cell_length_b   6.10518892
_cell_length_c   11.31080513
_cell_angle_alpha   90.00000000
_cell_angle_beta   97.22900261
_cell_angle_gamma   90.00000000
_symmetry_Int_Tables_number   1
_chemical_formula_structural   H4OF2
_chemical_formula_sum   'H16 O4 F8'
_cell_volume   246.15115658
_cell_formula_units_Z   4
loop_
 _symmetry_equiv_pos_site_id
 _symmetry_equiv_pos_as_xyz
  1  'x, y, z'
loop_
 _atom_site_type_symbol
 _atom_site_label
 _atom_site_symmetry_multiplicity
 _atom_site_fract_x
 _atom_site_fract_y
 _atom_site_fract_z
 _atom_site_occupancy
  H  H0  1  0.83616750  0.10581096  0.70010734  1
  H  H1  1  0.16383250  0.60581096  0.79989266  1
  H  H2  1  0.16383250  0.89418904  0.29989266  1
  H  H3  1  0.83616750  0.39418904  0.20010734  1
  H  H4  1  0.09619115  0.31382110  0.65496665  1
  H  H5  1  0.90380885  0.81382110  0.84503335  1
  H  H6  1  0.90380885  0.68617890  0.34503335  1
  H  H7  1  0.09619115  0.18617890  0.15496665  1
  H  H8  1  0.76858682  0.19506488  0.55662417  1
  H  H9  1  0.23141318  0.69506488  0.94337583  1
  H  H10  1  0.23141318  0.80493512  0.44337583  1
  H  H11  1  0.76858682  0.30493512  0.05662417  1
  H  H12  1  0.58821302  0.35425775  0.38625846  1
  H  H13  1  0.41178698  0.85425775  0.11374154  1
  H  H14  1  0.41178698  0.64574225  0.61374154  1
  H  H15  1  0.58821302  0.14574225  0.88625846  1
  O  O16  1  0.95856394  0.16951151  0.62996731  1
  O  O17  1  0.04143606  0.66951151  0.87003269  1
  O  O18  1  0.04143606  0.83048849  0.37003269  1
  O  O19  1  0.95856394  0.33048849  0.12996731  1
  F  F20  1  0.70139217  0.01317499  0.80617870  1
  F  F21  1  0.29860783  0.51317499  0.69382130  1
  F  F22  1  0.29860783  0.98682501  0.19382130  1
  F  F23  1  0.70139217  0.48682501  0.30617870  1
  F  F24  1  0.49008581  0.24792195  0.94855199  1
  F  F25  1  0.50991419  0.74792195  0.55144801  1
  F  F26  1  0.50991419  0.75207805  0.05144801  1
  F  F27  1  0.49008581  0.25207805  0.44855199  1
