# generated using pymatgen
data_BaP8
_symmetry_space_group_name_H-M   'P 1'
_cell_length_a   6.85995734
_cell_length_b   7.33009139
_cell_length_c   8.68997440
_cell_angle_alpha   86.36491799
_cell_angle_beta   83.75667959
_cell_angle_gamma   70.21503718
_symmetry_Int_Tables_number   1
_chemical_formula_structural   BaP8
_chemical_formula_sum   'Ba2 P16'
_cell_volume   408.56946439
_cell_formula_units_Z   2
loop_
 _symmetry_equiv_pos_site_id
 _symmetry_equiv_pos_as_xyz
  1  'x, y, z'
loop_
 _atom_site_type_symbol
 _atom_site_label
 _atom_site_symmetry_multiplicity
 _atom_site_fract_x
 _atom_site_fract_y
 _atom_site_fract_z
 _atom_site_occupancy
  P  P0  1  0.47667595  0.66884984  0.79717137  1
  P  P1  1  0.52332405  0.33115016  0.20282863  1
  P  P2  1  0.01308854  0.04196104  0.61805546  1
  P  P3  1  0.98691146  0.95803896  0.38194454  1
  P  P4  1  0.09029582  0.18343859  0.24162167  1
  P  P5  1  0.90970418  0.81656141  0.75837833  1
  P  P6  1  0.14146144  0.04892202  0.00278612  1
  P  P7  1  0.85853856  0.95107798  0.99721388  1
  P  P8  1  0.23615795  0.67674606  0.39380724  1
  P  P9  1  0.76384205  0.32325394  0.60619276  1
  P  P10  1  0.23655041  0.57937776  0.15654083  1
  P  P11  1  0.76344959  0.42062224  0.84345917  1
  P  P12  1  0.39587219  0.12224195  0.32748331  1
  P  P13  1  0.60412781  0.87775805  0.67251669  1
  P  P14  1  0.40184625  0.77368524  0.03975553  1
  P  P15  1  0.59815375  0.22631476  0.96024447  1
  Ba  Ba16  1  0.73710438  0.66494827  0.32055172  1
  Ba  Ba17  1  0.26289562  0.33505173  0.67944828  1
