# generated using pymatgen
data_HgAsO3
_symmetry_space_group_name_H-M   'P 1'
_cell_length_a   4.95871947
_cell_length_b   4.95871947
_cell_length_c   7.77621108
_cell_angle_alpha   90.00000000
_cell_angle_beta   90.00000000
_cell_angle_gamma   119.99999996
_symmetry_Int_Tables_number   1
_chemical_formula_structural   HgAsO3
_chemical_formula_sum   'Hg2 As2 O6'
_cell_volume   165.59138993
_cell_formula_units_Z   2
loop_
 _symmetry_equiv_pos_site_id
 _symmetry_equiv_pos_as_xyz
  1  'x, y, z'
loop_
 _atom_site_type_symbol
 _atom_site_label
 _atom_site_symmetry_multiplicity
 _atom_site_fract_x
 _atom_site_fract_y
 _atom_site_fract_z
 _atom_site_occupancy
  O  O0  1  0.38022784  0.00000000  0.63475986  1
  O  O1  1  0.00000000  0.38022784  0.63475986  1
  O  O2  1  0.61977216  0.61977216  0.63475986  1
  O  O3  1  0.00000000  0.61977216  0.36524014  1
  O  O4  1  0.38022784  0.38022784  0.36524014  1
  O  O5  1  0.61977216  0.00000000  0.36524014  1
  As  As6  1  0.33333333  0.66666667  0.50000000  1
  As  As7  1  0.66666667  0.33333333  0.50000000  1
  Hg  Hg8  1  0.00000000  0.00000000  0.83250956  1
  Hg  Hg9  1  0.00000000  0.00000000  0.16749044  1
