# generated using pymatgen
data_Si2N2O
_symmetry_space_group_name_H-M   'P 1'
_cell_length_a   4.89529270
_cell_length_b   5.27070889
_cell_length_c   5.27070889
_cell_angle_alpha   116.51545192
_cell_angle_beta   90.00000000
_cell_angle_gamma   90.00000000
_symmetry_Int_Tables_number   1
_chemical_formula_structural   Si2N2O
_chemical_formula_sum   'Si4 N4 O2'
_cell_volume   121.68848736
_cell_formula_units_Z   2
loop_
 _symmetry_equiv_pos_site_id
 _symmetry_equiv_pos_as_xyz
  1  'x, y, z'
loop_
 _atom_site_type_symbol
 _atom_site_label
 _atom_site_symmetry_multiplicity
 _atom_site_fract_x
 _atom_site_fract_y
 _atom_site_fract_z
 _atom_site_occupancy
  N  N0  1  0.38510510  0.09616741  0.65707978  1
  N  N1  1  0.88510510  0.90383259  0.34292022  1
  N  N2  1  0.88510510  0.34292022  0.90383259  1
  N  N3  1  0.38510510  0.65707978  0.09616741  1
  O  O4  1  0.77870292  0.79067978  0.79067978  1
  O  O5  1  0.27870292  0.20932022  0.20932022  1
  Si  Si6  1  0.72918344  0.02670169  0.67247869  1
  Si  Si7  1  0.22918344  0.97329831  0.32752131  1
  Si  Si8  1  0.22918344  0.32752131  0.97329831  1
  Si  Si9  1  0.72918344  0.67247869  0.02670169  1
