# generated using pymatgen
data_YCrB4
_symmetry_space_group_name_H-M   'P 1'
_cell_length_a   3.45005178
_cell_length_b   5.93353485
_cell_length_c   11.46220429
_cell_angle_alpha   90.00000000
_cell_angle_beta   90.00000000
_cell_angle_gamma   90.00000000
_symmetry_Int_Tables_number   1
_chemical_formula_structural   YCrB4
_chemical_formula_sum   'Y4 Cr4 B16'
_cell_volume   234.64281234
_cell_formula_units_Z   4
loop_
 _symmetry_equiv_pos_site_id
 _symmetry_equiv_pos_as_xyz
  1  'x, y, z'
loop_
 _atom_site_type_symbol
 _atom_site_label
 _atom_site_symmetry_multiplicity
 _atom_site_fract_x
 _atom_site_fract_y
 _atom_site_fract_z
 _atom_site_occupancy
  B  B0  1  0.50000000  0.02460345  0.69158150  1
  B  B1  1  0.50000000  0.97539655  0.30841850  1
  B  B2  1  0.50000000  0.52460345  0.80841850  1
  B  B3  1  0.50000000  0.47539655  0.19158150  1
  B  B4  1  0.50000000  0.11294973  0.54671903  1
  B  B5  1  0.50000000  0.88705027  0.45328097  1
  B  B6  1  0.50000000  0.61294973  0.95328097  1
  B  B7  1  0.50000000  0.38705027  0.04671903  1
  B  B8  1  0.50000000  0.28045369  0.31612904  1
  B  B9  1  0.50000000  0.71954631  0.68387096  1
  B  B10  1  0.50000000  0.78045369  0.18387096  1
  B  B11  1  0.50000000  0.21954631  0.81612904  1
  B  B12  1  0.50000000  0.36267138  0.46746874  1
  B  B13  1  0.50000000  0.63732862  0.53253126  1
  B  B14  1  0.50000000  0.86267138  0.03253126  1
  B  B15  1  0.50000000  0.13732862  0.96746874  1
  Cr  Cr16  1  0.00000000  0.37803244  0.92072714  1
  Cr  Cr17  1  0.00000000  0.62196756  0.07927286  1
  Cr  Cr18  1  0.00000000  0.87803244  0.57927286  1
  Cr  Cr19  1  0.00000000  0.12196756  0.42072714  1
  Y  Y20  1  0.00000000  0.37543367  0.65064976  1
  Y  Y21  1  0.00000000  0.62456633  0.34935024  1
  Y  Y22  1  0.00000000  0.87543367  0.84935024  1
  Y  Y23  1  0.00000000  0.12456633  0.15064976  1
