# generated using pymatgen
data_Na5Li3Ti5O14
_symmetry_space_group_name_H-M   'P 1'
_cell_length_a   8.19284370
_cell_length_b   7.03750950
_cell_length_c   5.22810692
_cell_angle_alpha   97.62297441
_cell_angle_beta   101.75013801
_cell_angle_gamma   88.47939472
_symmetry_Int_Tables_number   1
_chemical_formula_structural   Na5Li3Ti5O14
_chemical_formula_sum   'Na5 Li3 Ti5 O14'
_cell_volume   292.51325416
_cell_formula_units_Z   1
loop_
 _symmetry_equiv_pos_site_id
 _symmetry_equiv_pos_as_xyz
  1  'x, y, z'
loop_
 _atom_site_type_symbol
 _atom_site_label
 _atom_site_symmetry_multiplicity
 _atom_site_fract_x
 _atom_site_fract_y
 _atom_site_fract_z
 _atom_site_occupancy
  Na  Na0  1  0.20045224  0.70672222  0.35075041  1
  Na  Na1  1  0.36008127  0.86365451  0.92810265  1
  Na  Na2  1  0.50580991  0.99763145  0.48975590  1
  Na  Na3  1  0.64184414  0.14319502  0.09539672  1
  Na  Na4  1  0.77930563  0.27046030  0.64307317  1
  Li  Li5  1  0.06159810  0.56368441  0.77405258  1
  Li  Li6  1  0.28556434  0.29517938  0.13942535  1
  Li  Li7  1  0.93382154  0.42970423  0.22171811  1
  Ti  Ti8  1  0.00241624  0.00821538  0.99416230  1
  Ti  Ti9  1  0.13013805  0.14040374  0.56169548  1
  Ti  Ti10  1  0.41025099  0.42369259  0.71181247  1
  Ti  Ti11  1  0.58445438  0.57469904  0.29446239  1
  Ti  Ti12  1  0.73459763  0.71619752  0.86772119  1
  O  O13  1  0.04113336  0.25341439  0.88259738  1
  O  O14  1  0.10413223  0.90706770  0.70014743  1
  O  O15  1  0.18814211  0.41861223  0.50578130  1
  O  O16  1  0.21544484  0.01571498  0.25698455  1
  O  O17  1  0.37458698  0.17554172  0.79024813  1
  O  O18  1  0.35028196  0.55159438  0.02611258  1
  O  O19  1  0.48821874  0.68703262  0.60032504  1
  O  O20  1  0.51590675  0.32428552  0.40459163  1
  O  O21  1  0.66571996  0.45414627  0.97477977  1
  O  O22  1  0.61778273  0.81102264  0.15765428  1
  O  O23  1  0.76929998  0.97138478  0.80264743  1
  O  O24  1  0.79373533  0.57414476  0.53636420  1
  O  O25  1  0.92895981  0.15486362  0.31179776  1
  O  O26  1  0.95604474  0.71832559  0.04593981  1
