# generated using pymatgen
data_BaPbO3
_symmetry_space_group_name_H-M   'P 1'
_cell_length_a   6.13110806
_cell_length_b   6.15036687
_cell_length_c   6.15036688
_cell_angle_alpha   89.75035633
_cell_angle_beta   60.23373908
_cell_angle_gamma   60.23373898
_symmetry_Int_Tables_number   1
_chemical_formula_structural   BaPbO3
_chemical_formula_sum   'Ba2 Pb2 O6'
_cell_volume   165.49156185
_cell_formula_units_Z   2
loop_
 _symmetry_equiv_pos_site_id
 _symmetry_equiv_pos_as_xyz
  1  'x, y, z'
loop_
 _atom_site_type_symbol
 _atom_site_label
 _atom_site_symmetry_multiplicity
 _atom_site_fract_x
 _atom_site_fract_y
 _atom_site_fract_z
 _atom_site_occupancy
  O  O0  1  0.43897043  0.81956959  0.81956959  1
  O  O1  1  0.56102957  0.18043041  0.18043041  1
  O  O2  1  0.00000000  0.71243007  0.28756993  1
  O  O3  1  0.00000000  0.28756993  0.71243007  1
  O  O4  1  0.50000000  0.70687347  0.29312653  1
  O  O5  1  0.50000000  0.29312653  0.70687347  1
  Ba  Ba6  1  0.99458334  0.25649426  0.25649426  1
  Ba  Ba7  1  0.00541666  0.74350574  0.74350574  1
  Pb  Pb8  1  0.50000000  0.00000000  0.50000000  1
  Pb  Pb9  1  0.50000000  0.50000000  0.00000000  1
