# generated using pymatgen
data_Na6MnTe4
_symmetry_space_group_name_H-M   'P 1'
_cell_length_a   10.09270995
_cell_length_b   10.09270995
_cell_length_c   7.76062934
_cell_angle_alpha   90.00000000
_cell_angle_beta   90.00000000
_cell_angle_gamma   120.00000002
_symmetry_Int_Tables_number   1
_chemical_formula_structural   Na6MnTe4
_chemical_formula_sum   'Na12 Mn2 Te8'
_cell_volume   684.60987292
_cell_formula_units_Z   2
loop_
 _symmetry_equiv_pos_site_id
 _symmetry_equiv_pos_as_xyz
  1  'x, y, z'
loop_
 _atom_site_type_symbol
 _atom_site_label
 _atom_site_symmetry_multiplicity
 _atom_site_fract_x
 _atom_site_fract_y
 _atom_site_fract_z
 _atom_site_occupancy
  Na  Na0  1  0.15014854  0.84985146  0.54228001  1
  Na  Na1  1  0.30029708  0.15014854  0.04228001  1
  Na  Na2  1  0.84985146  0.69970292  0.04228001  1
  Na  Na3  1  0.15014854  0.30029708  0.54228001  1
  Na  Na4  1  0.69970292  0.84985146  0.54228001  1
  Na  Na5  1  0.84985146  0.15014854  0.04228001  1
  Na  Na6  1  0.52771282  0.47228718  0.37185888  1
  Na  Na7  1  0.05542564  0.52771282  0.87185888  1
  Na  Na8  1  0.47228718  0.94457436  0.87185888  1
  Na  Na9  1  0.52771282  0.05542564  0.37185888  1
  Na  Na10  1  0.94457436  0.47228718  0.37185888  1
  Na  Na11  1  0.47228718  0.52771282  0.87185888  1
  Mn  Mn12  1  0.33333333  0.66666667  0.25190938  1
  Mn  Mn13  1  0.66666667  0.33333333  0.75190938  1
  Te  Te14  1  0.33333333  0.66666667  0.60512026  1
  Te  Te15  1  0.66666667  0.33333333  0.10512026  1
  Te  Te16  1  0.18521033  0.81478967  0.14241790  1
  Te  Te17  1  0.37042066  0.18521033  0.64241790  1
  Te  Te18  1  0.81478967  0.62957934  0.64241790  1
  Te  Te19  1  0.18521033  0.37042066  0.14241790  1
  Te  Te20  1  0.62957934  0.81478967  0.14241790  1
  Te  Te21  1  0.81478967  0.18521033  0.64241790  1
