# generated using pymatgen
data_Lu2Ge2O7
_symmetry_space_group_name_H-M   'P 1'
_cell_length_a   6.76063948
_cell_length_b   6.76063948
_cell_length_c   12.29553165
_cell_angle_alpha   90.00000000
_cell_angle_beta   90.00000000
_cell_angle_gamma   90.00000000
_symmetry_Int_Tables_number   1
_chemical_formula_structural   Lu2Ge2O7
_chemical_formula_sum   'Lu8 Ge8 O28'
_cell_volume   561.98259649
_cell_formula_units_Z   4
loop_
 _symmetry_equiv_pos_site_id
 _symmetry_equiv_pos_as_xyz
  1  'x, y, z'
loop_
 _atom_site_type_symbol
 _atom_site_label
 _atom_site_symmetry_multiplicity
 _atom_site_fract_x
 _atom_site_fract_y
 _atom_site_fract_z
 _atom_site_occupancy
  O  O0  1  0.30393523  0.69606477  0.75000000  1
  O  O1  1  0.80393523  0.80393523  0.00000000  1
  O  O2  1  0.19606477  0.19606477  0.50000000  1
  O  O3  1  0.69606477  0.30393523  0.25000000  1
  O  O4  1  0.46263346  0.58061003  0.37933317  1
  O  O5  1  0.53736654  0.41938997  0.87933317  1
  O  O6  1  0.58061003  0.46263346  0.62066683  1
  O  O7  1  0.08061003  0.03736654  0.12933317  1
  O  O8  1  0.91938997  0.96263346  0.62933317  1
  O  O9  1  0.03736654  0.08061003  0.87066683  1
  O  O10  1  0.96263346  0.91938997  0.37066683  1
  O  O11  1  0.41938997  0.53736654  0.12066683  1
  O  O12  1  0.33787566  0.93328780  0.32015583  1
  O  O13  1  0.66212434  0.06671220  0.82015583  1
  O  O14  1  0.93328780  0.33787566  0.67984417  1
  O  O15  1  0.43328780  0.16212434  0.07015583  1
  O  O16  1  0.82352705  0.35755639  0.04353773  1
  O  O17  1  0.14244361  0.32352705  0.29353773  1
  O  O18  1  0.85755639  0.67647295  0.79353773  1
  O  O19  1  0.32352705  0.14244361  0.70646227  1
  O  O20  1  0.67647295  0.85755639  0.20646227  1
  O  O21  1  0.17647295  0.64244361  0.54353773  1
  O  O22  1  0.35755639  0.82352705  0.95646227  1
  O  O23  1  0.64244361  0.17647295  0.45646227  1
  O  O24  1  0.06671220  0.66212434  0.17984417  1
  O  O25  1  0.83787566  0.56671220  0.42984417  1
  O  O26  1  0.16212434  0.43328780  0.92984417  1
  O  O27  1  0.56671220  0.83787566  0.57015583  1
  Ge  Ge28  1  0.64856792  0.39935078  0.38281836  1
  Ge  Ge29  1  0.35143208  0.60064922  0.88281836  1
  Ge  Ge30  1  0.39935078  0.64856792  0.61718164  1
  Ge  Ge31  1  0.89935078  0.85143208  0.13281836  1
  Ge  Ge32  1  0.10064922  0.14856792  0.63281836  1
  Ge  Ge33  1  0.85143208  0.89935078  0.86718164  1
  Ge  Ge34  1  0.14856792  0.10064922  0.36718164  1
  Ge  Ge35  1  0.60064922  0.35143208  0.11718164  1
  Lu  Lu36  1  0.64338393  0.87281223  0.38535861  1
  Lu  Lu37  1  0.35661607  0.12718777  0.88535861  1
  Lu  Lu38  1  0.87281223  0.64338393  0.61464139  1
  Lu  Lu39  1  0.37281223  0.85661607  0.13535861  1
  Lu  Lu40  1  0.62718777  0.14338393  0.63535861  1
  Lu  Lu41  1  0.85661607  0.37281223  0.86464139  1
  Lu  Lu42  1  0.14338393  0.62718777  0.36464139  1
  Lu  Lu43  1  0.12718777  0.35661607  0.11464139  1
