# generated using pymatgen
data_Li4NbFe(WO6)2
_symmetry_space_group_name_H-M   'P 1'
_cell_length_a   5.48902140
_cell_length_b   10.98647169
_cell_length_c   9.68795835
_cell_angle_alpha   28.17402259
_cell_angle_beta   51.22939374
_cell_angle_gamma   56.44385677
_symmetry_Int_Tables_number   1
_chemical_formula_structural   Li4NbFe(WO6)2
_chemical_formula_sum   'Li4 Nb1 Fe1 W2 O12'
_cell_volume   215.06535745
_cell_formula_units_Z   1
loop_
 _symmetry_equiv_pos_site_id
 _symmetry_equiv_pos_as_xyz
  1  'x, y, z'
loop_
 _atom_site_type_symbol
 _atom_site_label
 _atom_site_symmetry_multiplicity
 _atom_site_fract_x
 _atom_site_fract_y
 _atom_site_fract_z
 _atom_site_occupancy
  Li  Li0  1  0.31886486  0.00008453  0.27077732  1
  Li  Li1  1  0.25620224  0.49788133  0.30758811  1
  Li  Li2  1  0.77270192  0.99542612  0.80999887  1
  Li  Li3  1  0.77575480  0.50446027  0.74403227  1
  Nb  Nb4  1  0.00491610  0.50159121  0.01138847  1
  Fe  Fe5  1  0.00844913  0.99884423  0.00249902  1
  W  W6  1  0.51988437  0.99679238  0.50269158  1
  W  W7  1  0.48845274  0.50502790  0.50500902  1
  O  O8  1  0.37525875  0.30730007  0.12335478  1
  O  O9  1  0.24991309  0.12029632  0.61330039  1
  O  O10  1  0.14238221  0.31961735  0.72596377  1
  O  O11  1  0.87412875  0.18119533  0.24928294  1
  O  O12  1  0.37198539  0.79083089  0.13837424  1
  O  O13  1  0.74249287  0.37438933  0.37335136  1
  O  O14  1  0.23491921  0.62271310  0.62520998  1
  O  O15  1  0.62905553  0.19847091  0.85067099  1
  O  O16  1  0.12400602  0.82073377  0.73449535  1
  O  O17  1  0.85162459  0.69529313  0.23867386  1
  O  O18  1  0.71200410  0.88472691  0.37338941  1
  O  O19  1  0.61820133  0.68432392  0.87114727  1
