# generated using pymatgen
data_WO2
_symmetry_space_group_name_H-M   'P 1'
_cell_length_a   4.77047946
_cell_length_b   5.78359632
_cell_length_c   6.56588286
_cell_angle_alpha   124.46276778
_cell_angle_beta   90.00009012
_cell_angle_gamma   89.99996230
_symmetry_Int_Tables_number   1
_chemical_formula_structural   WO2
_chemical_formula_sum   'W4 O8'
_cell_volume   149.36219067
_cell_formula_units_Z   4
loop_
 _symmetry_equiv_pos_site_id
 _symmetry_equiv_pos_as_xyz
  1  'x, y, z'
loop_
 _atom_site_type_symbol
 _atom_site_label
 _atom_site_symmetry_multiplicity
 _atom_site_fract_x
 _atom_site_fract_y
 _atom_site_fract_z
 _atom_site_occupancy
  O  O0  1  0.19721694  0.80234752  0.40103382  1
  O  O1  1  0.69721691  0.69765306  0.09896696  1
  O  O2  1  0.80278306  0.19765248  0.59896618  1
  O  O3  1  0.30278309  0.30234694  0.90103304  1
  O  O4  1  0.80278299  0.19765312  0.09896674  1
  O  O5  1  0.30278310  0.30234734  0.40103440  1
  O  O6  1  0.19721701  0.80234688  0.90103326  1
  O  O7  1  0.69721690  0.69765266  0.59896560  1
  W  W8  1  0.50000039  0.50000042  0.24999620  1
  W  W9  1  0.99999846  0.99999675  0.24999783  1
  W  W10  1  0.49999961  0.49999958  0.75000380  1
  W  W11  1  0.00000154  0.00000325  0.75000217  1
