# generated using pymatgen
data_Fe3H10S2NO14
_symmetry_space_group_name_H-M   'P 1'
_cell_length_a   7.29690652
_cell_length_b   7.29690710
_cell_length_c   7.29690689
_cell_angle_alpha   61.32429417
_cell_angle_beta   61.32428971
_cell_angle_gamma   61.32429063
_symmetry_Int_Tables_number   1
_chemical_formula_structural   Fe3H10S2NO14
_chemical_formula_sum   'Fe3 H10 S2 N1 O14'
_cell_volume   282.90383728
_cell_formula_units_Z   1
loop_
 _symmetry_equiv_pos_site_id
 _symmetry_equiv_pos_as_xyz
  1  'x, y, z'
loop_
 _atom_site_type_symbol
 _atom_site_label
 _atom_site_symmetry_multiplicity
 _atom_site_fract_x
 _atom_site_fract_y
 _atom_site_fract_z
 _atom_site_occupancy
  Fe  Fe0  1  0.49870236  0.99934449  0.99934449  1
  Fe  Fe1  1  0.99934449  0.99934449  0.49870236  1
  Fe  Fe2  1  0.99934449  0.49870236  0.99934449  1
  H  H3  1  0.09569259  0.09569259  0.87185130  1
  H  H4  1  0.09569259  0.87185130  0.09569259  1
  H  H5  1  0.31370733  0.31370733  0.71574421  1
  H  H6  1  0.31370733  0.71574421  0.31370733  1
  H  H7  1  0.27800936  0.69645162  0.69645162  1
  H  H8  1  0.87185130  0.09569259  0.09569259  1
  H  H9  1  0.71574421  0.31370733  0.31370733  1
  H  H10  1  0.69645162  0.27800936  0.69645161  1
  H  H11  1  0.69645162  0.69645161  0.27800936  1
  H  H12  1  0.94265496  0.94265495  0.94265496  1
  N  N13  1  0.00068418  0.00068418  0.00068418  1
  O  O14  1  0.16710405  0.16710405  0.49550407  1
  O  O15  1  0.16710405  0.49550407  0.16710405  1
  O  O16  1  0.49550407  0.16710405  0.16710405  1
  O  O17  1  0.38853363  0.38853363  0.38853363  1
  O  O18  1  0.26420105  0.26420105  0.87800369  1
  O  O19  1  0.26420105  0.87800369  0.26420105  1
  O  O20  1  0.11828208  0.73399074  0.73399074  1
  O  O21  1  0.87800369  0.26420105  0.26420105  1
  O  O22  1  0.73399074  0.73399074  0.11828208  1
  O  O23  1  0.73399074  0.11828208  0.73399074  1
  O  O24  1  0.61078373  0.61078373  0.61078373  1
  O  O25  1  0.50385384  0.83205578  0.83205578  1
  O  O26  1  0.83205578  0.50385384  0.83205578  1
  O  O27  1  0.83205578  0.83205578  0.50385384  1
  S  S28  1  0.30527726  0.30527726  0.30527726  1
  S  S29  1  0.69402002  0.69402002  0.69402002  1
