# generated using pymatgen
data_NaPN2
_symmetry_space_group_name_H-M   'P 1'
_cell_length_a   4.99877357
_cell_length_b   4.99877356
_cell_length_c   4.99877356
_cell_angle_alpha   89.90897825
_cell_angle_beta   120.05256531
_cell_angle_gamma   120.05256536
_symmetry_Int_Tables_number   1
_chemical_formula_structural   NaPN2
_chemical_formula_sum   'Na2 P2 N4'
_cell_volume   88.25302619
_cell_formula_units_Z   2
loop_
 _symmetry_equiv_pos_site_id
 _symmetry_equiv_pos_as_xyz
  1  'x, y, z'
loop_
 _atom_site_type_symbol
 _atom_site_label
 _atom_site_symmetry_multiplicity
 _atom_site_fract_x
 _atom_site_fract_y
 _atom_site_fract_z
 _atom_site_occupancy
  N  N0  1  0.62594744  0.87500000  0.00094744  1
  N  N1  1  0.87405256  0.99905256  0.62500000  1
  N  N2  1  0.37405256  0.37500000  0.24905256  1
  N  N3  1  0.12594744  0.75094744  0.12500000  1
  Na  Na4  1  0.00000000  0.50000000  0.50000000  1
  Na  Na5  1  0.50000000  0.25000000  0.75000000  1
  P  P6  1  0.50000000  0.75000000  0.25000000  1
  P  P7  1  0.00000000  0.00000000  0.00000000  1
