# generated using pymatgen
data_MgH12SO9
_symmetry_space_group_name_H-M   'P 1'
_cell_length_a   5.94920519
_cell_length_b   5.94920520
_cell_length_c   5.94920520
_cell_angle_alpha   96.00119120
_cell_angle_beta   96.00119118
_cell_angle_gamma   96.00119118
_symmetry_Int_Tables_number   1
_chemical_formula_structural   MgH12SO9
_chemical_formula_sum   'Mg1 H12 S1 O9'
_cell_volume   206.83457958
_cell_formula_units_Z   1
loop_
 _symmetry_equiv_pos_site_id
 _symmetry_equiv_pos_as_xyz
  1  'x, y, z'
loop_
 _atom_site_type_symbol
 _atom_site_label
 _atom_site_symmetry_multiplicity
 _atom_site_fract_x
 _atom_site_fract_y
 _atom_site_fract_z
 _atom_site_occupancy
  H  H0  1  0.18436055  0.79712655  0.36728515  1
  H  H1  1  0.79712655  0.36728515  0.18436055  1
  H  H2  1  0.36728515  0.18436055  0.79712655  1
  H  H3  1  0.26580615  0.06239923  0.40078649  1
  H  H4  1  0.06239923  0.40078649  0.26580615  1
  H  H5  1  0.40078649  0.26580615  0.06239923  1
  H  H6  1  0.73324010  0.13270130  0.61991651  1
  H  H7  1  0.13270130  0.61991651  0.73324010  1
  H  H8  1  0.61991651  0.73324010  0.13270130  1
  H  H9  1  0.94514666  0.01670419  0.53267557  1
  H  H10  1  0.01670419  0.53267557  0.94514666  1
  H  H11  1  0.53267557  0.94514666  0.01670419  1
  O  O12  1  0.13575848  0.94626871  0.32876943  1
  O  O13  1  0.94626871  0.32876943  0.13575848  1
  O  O14  1  0.32876943  0.13575848  0.94626871  1
  O  O15  1  0.87489487  0.06819060  0.67015720  1
  O  O16  1  0.06819060  0.67015720  0.87489487  1
  O  O17  1  0.67015720  0.87489487  0.06819060  1
  O  O18  1  0.47343643  0.24511487  0.55342890  1
  O  O19  1  0.24511487  0.55342890  0.47343643  1
  O  O20  1  0.55342890  0.47343643  0.24511487  1
  Mg  Mg21  1  0.99090276  0.99090276  0.99090276  1
  S  S22  1  0.49534929  0.49534929  0.49534929  1
