# generated using pymatgen
data_Mn4SiO7
_symmetry_space_group_name_H-M   'P 1'
_cell_length_a   8.15226228
_cell_length_b   8.15226229
_cell_length_c   4.96114960
_cell_angle_alpha   90.00000000
_cell_angle_beta   90.00000000
_cell_angle_gamma   119.99999997
_symmetry_Int_Tables_number   1
_chemical_formula_structural   Mn4SiO7
_chemical_formula_sum   'Mn8 Si2 O14'
_cell_volume   285.54150386
_cell_formula_units_Z   2
loop_
 _symmetry_equiv_pos_site_id
 _symmetry_equiv_pos_as_xyz
  1  'x, y, z'
loop_
 _atom_site_type_symbol
 _atom_site_label
 _atom_site_symmetry_multiplicity
 _atom_site_fract_x
 _atom_site_fract_y
 _atom_site_fract_z
 _atom_site_occupancy
  O  O0  1  0.94765175  0.15298362  0.26087529  1
  O  O1  1  0.79466813  0.94765175  0.76087529  1
  O  O2  1  0.15298362  0.20533187  0.76087529  1
  O  O3  1  0.84701638  0.79466813  0.26087529  1
  O  O4  1  0.20533187  0.05234825  0.26087529  1
  O  O5  1  0.05234825  0.84701638  0.76087529  1
  O  O6  1  0.86980291  0.37667485  0.79914747  1
  O  O7  1  0.49312806  0.86980291  0.29914747  1
  O  O8  1  0.37667485  0.50687194  0.29914747  1
  O  O9  1  0.62332515  0.49312806  0.79914747  1
  O  O10  1  0.33333333  0.66666667  0.76975848  1
  O  O11  1  0.66666667  0.33333333  0.26975848  1
  O  O12  1  0.13019709  0.62332515  0.29914747  1
  O  O13  1  0.50687194  0.13019709  0.79914747  1
  Si  Si14  1  0.66666667  0.33333333  0.93797020  1
  Si  Si15  1  0.33333333  0.66666667  0.43797020  1
  Mn  Mn16  1  0.70404741  0.11339033  0.50330328  1
  Mn  Mn17  1  0.59065708  0.70404741  0.00330328  1
  Mn  Mn18  1  0.11339033  0.40934292  0.00330328  1
  Mn  Mn19  1  0.88660967  0.59065708  0.50330328  1
  Mn  Mn20  1  0.40934292  0.29595259  0.50330328  1
  Mn  Mn21  1  0.29595259  0.88660967  0.00330328  1
  Mn  Mn22  1  0.00000000  0.00000000  0.51029319  1
  Mn  Mn23  1  0.00000000  0.00000000  0.01029319  1
