# generated using pymatgen
data_NaHO
_symmetry_space_group_name_H-M   'P 1'
_cell_length_a   3.41955664
_cell_length_b   3.43182403
_cell_length_c   6.02824874
_cell_angle_alpha   106.53764121
_cell_angle_beta   90.00000000
_cell_angle_gamma   90.00000000
_symmetry_Int_Tables_number   1
_chemical_formula_structural   NaHO
_chemical_formula_sum   'Na2 H2 O2'
_cell_volume   67.81696100
_cell_formula_units_Z   2
loop_
 _symmetry_equiv_pos_site_id
 _symmetry_equiv_pos_as_xyz
  1  'x, y, z'
loop_
 _atom_site_type_symbol
 _atom_site_label
 _atom_site_symmetry_multiplicity
 _atom_site_fract_x
 _atom_site_fract_y
 _atom_site_fract_z
 _atom_site_occupancy
  H  H0  1  0.25000000  0.94878922  0.89757843  1
  H  H1  1  0.75000000  0.05121078  0.10242157  1
  O  O2  1  0.75000000  0.13536761  0.27073521  1
  O  O3  1  0.25000000  0.86463239  0.72926479  1
  Na  Na4  1  0.25000000  0.66287509  0.32575018  1
  Na  Na5  1  0.75000000  0.33712491  0.67424982  1
