# generated using pymatgen
data_Na2Si2O5
_symmetry_space_group_name_H-M   'P 1'
_cell_length_a   4.89165621
_cell_length_b   8.22514599
_cell_length_c   12.11926185
_cell_angle_alpha   90.00000000
_cell_angle_beta   90.00000000
_cell_angle_gamma   90.00000000
_symmetry_Int_Tables_number   1
_chemical_formula_structural   Na2Si2O5
_chemical_formula_sum   'Na8 Si8 O20'
_cell_volume   487.61348874
_cell_formula_units_Z   4
loop_
 _symmetry_equiv_pos_site_id
 _symmetry_equiv_pos_as_xyz
  1  'x, y, z'
loop_
 _atom_site_type_symbol
 _atom_site_label
 _atom_site_symmetry_multiplicity
 _atom_site_fract_x
 _atom_site_fract_y
 _atom_site_fract_z
 _atom_site_occupancy
  Na  Na0  1  0.57303323  0.43617286  0.27432471  1
  Na  Na1  1  0.09738687  0.68822161  0.19035914  1
  Na  Na2  1  0.07303323  0.06382714  0.77432471  1
  Na  Na3  1  0.09738687  0.18822161  0.30964086  1
  Na  Na4  1  0.07303323  0.56382714  0.72567529  1
  Na  Na5  1  0.57303323  0.93617286  0.22567529  1
  Na  Na6  1  0.59738687  0.81177839  0.69035914  1
  Na  Na7  1  0.59738687  0.31177839  0.80964086  1
  Si  Si8  1  0.52676459  0.94708209  0.93267973  1
  Si  Si9  1  0.02676459  0.55291791  0.43267973  1
  Si  Si10  1  0.52676459  0.44708209  0.56732027  1
  Si  Si11  1  0.63758512  0.10804101  0.47404083  1
  Si  Si12  1  0.13758512  0.39195899  0.97404083  1
  Si  Si13  1  0.13758512  0.89195899  0.52595917  1
  Si  Si14  1  0.02676459  0.05291791  0.06732027  1
  Si  Si15  1  0.63758512  0.60804101  0.02595917  1
  O  O16  1  0.19801226  0.97252842  0.96289259  1
  O  O17  1  0.96451276  0.05513323  0.48621722  1
  O  O18  1  0.57832621  0.66414808  0.15020691  1
  O  O19  1  0.07832621  0.83585192  0.65020691  1
  O  O20  1  0.07832621  0.33585192  0.84979309  1
  O  O21  1  0.58930913  0.02647725  0.81512720  1
  O  O22  1  0.08366984  0.25128464  0.06952892  1
  O  O23  1  0.69801226  0.52747158  0.46289259  1
  O  O24  1  0.46451276  0.44486677  0.98621722  1
  O  O25  1  0.08930913  0.47352275  0.31512720  1
  O  O26  1  0.58366984  0.74871536  0.93047108  1
  O  O27  1  0.96451276  0.55513323  0.01378278  1
  O  O28  1  0.69801226  0.02747158  0.03710741  1
  O  O29  1  0.08366984  0.75128464  0.43047108  1
  O  O30  1  0.46451276  0.94486677  0.51378278  1
  O  O31  1  0.58930913  0.52647725  0.68487280  1
  O  O32  1  0.58366984  0.24871536  0.56952892  1
  O  O33  1  0.08930913  0.97352275  0.18487280  1
  O  O34  1  0.57832621  0.16414808  0.34979309  1
  O  O35  1  0.19801226  0.47252842  0.53710741  1
