# generated using pymatgen
data_Ge5Ir4
_symmetry_space_group_name_H-M   'P 1'
_cell_length_a   5.69136472
_cell_length_b   5.69136472
_cell_length_c   18.56880916
_cell_angle_alpha   90.00000000
_cell_angle_beta   90.00000000
_cell_angle_gamma   90.00000000
_symmetry_Int_Tables_number   1
_chemical_formula_structural   Ge5Ir4
_chemical_formula_sum   'Ge20 Ir16'
_cell_volume   601.47403997
_cell_formula_units_Z   4
loop_
 _symmetry_equiv_pos_site_id
 _symmetry_equiv_pos_as_xyz
  1  'x, y, z'
loop_
 _atom_site_type_symbol
 _atom_site_label
 _atom_site_symmetry_multiplicity
 _atom_site_fract_x
 _atom_site_fract_y
 _atom_site_fract_z
 _atom_site_occupancy
  Ir  Ir0  1  0.00000000  0.00000000  0.25000000  1
  Ir  Ir1  1  0.00000000  0.00000000  0.75000000  1
  Ir  Ir2  1  0.00000000  0.00000000  0.00000000  1
  Ir  Ir3  1  0.00000000  0.00000000  0.50000000  1
  Ir  Ir4  1  0.50000000  0.50000000  0.13595259  1
  Ir  Ir5  1  0.50000000  0.50000000  0.86404741  1
  Ir  Ir6  1  0.50000000  0.50000000  0.36404741  1
  Ir  Ir7  1  0.50000000  0.50000000  0.63595259  1
  Ir  Ir8  1  0.00000000  0.50000000  0.05557846  1
  Ir  Ir9  1  0.50000000  0.00000000  0.94442154  1
  Ir  Ir10  1  0.50000000  0.00000000  0.44442154  1
  Ir  Ir11  1  0.00000000  0.50000000  0.55557846  1
  Ir  Ir12  1  0.00000000  0.50000000  0.32332510  1
  Ir  Ir13  1  0.50000000  0.00000000  0.67667490  1
  Ir  Ir14  1  0.50000000  0.00000000  0.17667490  1
  Ir  Ir15  1  0.00000000  0.50000000  0.82332510  1
  Ge  Ge16  1  0.32241995  0.32241995  0.25000000  1
  Ge  Ge17  1  0.32241995  0.67758005  0.75000000  1
  Ge  Ge18  1  0.67758005  0.32241995  0.75000000  1
  Ge  Ge19  1  0.67758005  0.67758005  0.25000000  1
  Ge  Ge20  1  0.34268048  0.19773348  0.05507565  1
  Ge  Ge21  1  0.19773348  0.65731952  0.94492435  1
  Ge  Ge22  1  0.80226652  0.34268048  0.94492435  1
  Ge  Ge23  1  0.65731952  0.80226652  0.05507565  1
  Ge  Ge24  1  0.19773348  0.34268048  0.44492435  1
  Ge  Ge25  1  0.80226652  0.65731952  0.44492435  1
  Ge  Ge26  1  0.65731952  0.19773348  0.55507565  1
  Ge  Ge27  1  0.34268048  0.80226652  0.55507565  1
  Ge  Ge28  1  0.85493104  0.22425333  0.14462025  1
  Ge  Ge29  1  0.22425333  0.14506896  0.85537975  1
  Ge  Ge30  1  0.77574667  0.85493104  0.85537975  1
  Ge  Ge31  1  0.14506896  0.77574667  0.14462025  1
  Ge  Ge32  1  0.22425333  0.85493104  0.35537975  1
  Ge  Ge33  1  0.77574667  0.14506896  0.35537975  1
  Ge  Ge34  1  0.14506896  0.22425333  0.64462025  1
  Ge  Ge35  1  0.85493104  0.77574667  0.64462025  1
