# generated using pymatgen
data_SrLiPrTeO6
_symmetry_space_group_name_H-M   'P 1'
_cell_length_a   5.61712105
_cell_length_b   5.70785003
_cell_length_c   8.01607718
_cell_angle_alpha   90.40020760
_cell_angle_beta   90.00000000
_cell_angle_gamma   90.00000000
_symmetry_Int_Tables_number   1
_chemical_formula_structural   SrLiPrTeO6
_chemical_formula_sum   'Sr2 Li2 Pr2 Te2 O12'
_cell_volume   257.00266843
_cell_formula_units_Z   2
loop_
 _symmetry_equiv_pos_site_id
 _symmetry_equiv_pos_as_xyz
  1  'x, y, z'
loop_
 _atom_site_type_symbol
 _atom_site_label
 _atom_site_symmetry_multiplicity
 _atom_site_fract_x
 _atom_site_fract_y
 _atom_site_fract_z
 _atom_site_occupancy
  Sr  Sr0  1  0.00096786  0.00458275  0.24936174  1
  Sr  Sr1  1  0.49903214  0.50458275  0.74936174  1
  Li  Li2  1  0.00166081  0.49613316  0.00079800  1
  Li  Li3  1  0.49833919  0.99613316  0.50079800  1
  Pr  Pr4  1  0.50357612  0.48497999  0.24868275  1
  Pr  Pr5  1  0.99642388  0.98497999  0.74868275  1
  Te  Te6  1  0.00015956  0.50078312  0.49898726  1
  Te  Te7  1  0.49984044  0.00078312  0.99898726  1
  O  O8  1  0.99724768  0.57190894  0.26335711  1
  O  O9  1  0.23281157  0.74510358  0.54702364  1
  O  O10  1  0.25142618  0.27510119  0.45510414  1
  O  O11  1  0.24857382  0.77510119  0.95510414  1
  O  O12  1  0.26718843  0.24510358  0.04702364  1
  O  O13  1  0.50275232  0.07190894  0.76335711  1
  O  O14  1  0.49955691  0.90742909  0.23404326  1
  O  O15  1  0.74874134  0.77173748  0.95589337  1
  O  O16  1  0.73620480  0.24224169  0.04674772  1
  O  O17  1  0.76379520  0.74224169  0.54674772  1
  O  O18  1  0.75125866  0.27173748  0.45589337  1
  O  O19  1  0.00044309  0.40742909  0.73404326  1
