# generated using pymatgen
data_BaP10
_symmetry_space_group_name_H-M   'P 1'
_cell_length_a   6.49497217
_cell_length_b   7.25865155
_cell_length_c   12.14039500
_cell_angle_alpha   90.00000000
_cell_angle_beta   90.00000000
_cell_angle_gamma   116.57668713
_symmetry_Int_Tables_number   1
_chemical_formula_structural   BaP10
_chemical_formula_sum   'Ba2 P20'
_cell_volume   511.87856414
_cell_formula_units_Z   2
loop_
 _symmetry_equiv_pos_site_id
 _symmetry_equiv_pos_as_xyz
  1  'x, y, z'
loop_
 _atom_site_type_symbol
 _atom_site_label
 _atom_site_symmetry_multiplicity
 _atom_site_fract_x
 _atom_site_fract_y
 _atom_site_fract_z
 _atom_site_occupancy
  P  P0  1  0.72908610  0.95673218  0.31600837  1
  P  P1  1  0.27091390  0.04326782  0.81600837  1
  P  P2  1  0.38910514  0.77821029  0.60550001  1
  P  P3  1  0.61089486  0.22178971  0.10550001  1
  P  P4  1  0.06592637  0.13185274  0.55775791  1
  P  P5  1  0.93407363  0.86814726  0.05775791  1
  P  P6  1  0.40778682  0.81557365  0.78319617  1
  P  P7  1  0.59221318  0.18442635  0.28319617  1
  P  P8  1  0.81294504  0.62589007  0.92981331  1
  P  P9  1  0.18705496  0.37410993  0.42981331  1
  P  P10  1  0.90825690  0.81651380  0.77977087  1
  P  P11  1  0.09174310  0.18348620  0.27977087  1
  P  P12  1  0.55124582  0.10249164  0.56465256  1
  P  P13  1  0.44875418  0.89750836  0.06465256  1
  P  P14  1  0.86863064  0.24719004  0.66509028  1
  P  P15  1  0.13136936  0.75280996  0.16509028  1
  P  P16  1  0.37855941  0.24719004  0.66509028  1
  P  P17  1  0.62144059  0.75280996  0.16509028  1
  P  P18  1  0.77235392  0.04326782  0.81600837  1
  P  P19  1  0.22764608  0.95673218  0.31600837  1
  Ba  Ba20  1  0.81323467  0.62646934  0.50651187  1
  Ba  Ba21  1  0.18676533  0.37353066  0.00651187  1
