# generated using pymatgen
data_NaCaAlF6
_symmetry_space_group_name_H-M   'P 1'
_cell_length_a   9.07121724
_cell_length_b   9.07121724
_cell_length_c   5.11669844
_cell_angle_alpha   90.00000000
_cell_angle_beta   90.00000000
_cell_angle_gamma   120.00000001
_symmetry_Int_Tables_number   1
_chemical_formula_structural   NaCaAlF6
_chemical_formula_sum   'Na3 Ca3 Al3 F18'
_cell_volume   364.62932109
_cell_formula_units_Z   3
loop_
 _symmetry_equiv_pos_site_id
 _symmetry_equiv_pos_as_xyz
  1  'x, y, z'
loop_
 _atom_site_type_symbol
 _atom_site_label
 _atom_site_symmetry_multiplicity
 _atom_site_fract_x
 _atom_site_fract_y
 _atom_site_fract_z
 _atom_site_occupancy
  F  F0  1  0.77720620  0.25368173  0.29494788  1
  F  F1  1  0.74631827  0.52352447  0.29494788  1
  F  F2  1  0.47647553  0.22279380  0.29494788  1
  F  F3  1  0.52352447  0.74631827  0.70505212  1
  F  F4  1  0.22279380  0.47647553  0.70505212  1
  F  F5  1  0.25368173  0.77720620  0.70505212  1
  F  F6  1  0.41168171  0.55522749  0.28895005  1
  F  F7  1  0.44477251  0.85645421  0.28895005  1
  F  F8  1  0.14354579  0.58831829  0.28895005  1
  F  F9  1  0.91513331  0.10850784  0.80004196  1
  F  F10  1  0.89149216  0.80662547  0.80004196  1
  F  F11  1  0.19337453  0.08486669  0.80004196  1
  F  F12  1  0.80662547  0.89149216  0.19995804  1
  F  F13  1  0.08486669  0.19337453  0.19995804  1
  F  F14  1  0.10850784  0.91513331  0.19995804  1
  F  F15  1  0.55522749  0.41168171  0.71104995  1
  F  F16  1  0.58831829  0.14354579  0.71104995  1
  F  F17  1  0.85645421  0.44477251  0.71104995  1
  Na  Na18  1  0.00000000  0.71195836  0.50000000  1
  Na  Na19  1  0.71195836  0.00000000  0.50000000  1
  Na  Na20  1  0.28804164  0.28804164  0.50000000  1
  Al  Al21  1  0.66666667  0.33333333  0.50240656  1
  Al  Al22  1  0.33333333  0.66666667  0.49759344  1
  Al  Al23  1  0.00000000  0.00000000  0.00000000  1
  Ca  Ca24  1  0.62954214  0.62954214  0.00000000  1
  Ca  Ca25  1  0.00000000  0.37045786  0.00000000  1
  Ca  Ca26  1  0.37045786  0.00000000  0.00000000  1
