# generated using pymatgen
data_MgH2SeO5
_symmetry_space_group_name_H-M   'P 1'
_cell_length_a   5.41913567
_cell_length_b   5.41913568
_cell_length_c   7.78275952
_cell_angle_alpha   106.64131009
_cell_angle_beta   106.64131010
_cell_angle_gamma   98.99772472
_symmetry_Int_Tables_number   1
_chemical_formula_structural   MgH2SeO5
_chemical_formula_sum   'Mg2 H4 Se2 O10'
_cell_volume   202.61269846
_cell_formula_units_Z   2
loop_
 _symmetry_equiv_pos_site_id
 _symmetry_equiv_pos_as_xyz
  1  'x, y, z'
loop_
 _atom_site_type_symbol
 _atom_site_label
 _atom_site_symmetry_multiplicity
 _atom_site_fract_x
 _atom_site_fract_y
 _atom_site_fract_z
 _atom_site_occupancy
  H  H0  1  0.63298080  0.03222695  0.20412240  1
  H  H1  1  0.46777305  0.86701920  0.29587760  1
  H  H2  1  0.36701920  0.96777305  0.79587760  1
  H  H3  1  0.53222695  0.13298080  0.70412240  1
  O  O4  1  0.82009363  0.71831606  0.58325253  1
  O  O5  1  0.78168394  0.67990637  0.91674747  1
  O  O6  1  0.17990637  0.28168394  0.41674747  1
  O  O7  1  0.21831606  0.32009363  0.08325253  1
  O  O8  1  0.25005365  0.68445546  0.84912134  1
  O  O9  1  0.81554454  0.24994635  0.65087866  1
  O  O10  1  0.74994635  0.31554454  0.15087866  1
  O  O11  1  0.18445546  0.75005365  0.34912134  1
  O  O12  1  0.37723261  0.12276739  0.75000000  1
  O  O13  1  0.62276739  0.87723261  0.25000000  1
  Mg  Mg14  1  0.50000000  0.50000000  0.00000000  1
  Mg  Mg15  1  0.00000000  0.00000000  0.50000000  1
  Se  Se16  1  0.91542480  0.58457520  0.75000000  1
  Se  Se17  1  0.08457520  0.41542480  0.25000000  1
