# generated using pymatgen
data_Li2CuPO4
_symmetry_space_group_name_H-M   'P 1'
_cell_length_a   6.23811251
_cell_length_b   5.35831920
_cell_length_c   5.06792988
_cell_angle_alpha   90.32507567
_cell_angle_beta   89.99966236
_cell_angle_gamma   89.63364556
_symmetry_Int_Tables_number   1
_chemical_formula_structural   Li2CuPO4
_chemical_formula_sum   'Li4 Cu2 P2 O8'
_cell_volume   169.39341113
_cell_formula_units_Z   2
loop_
 _symmetry_equiv_pos_site_id
 _symmetry_equiv_pos_as_xyz
  1  'x, y, z'
loop_
 _atom_site_type_symbol
 _atom_site_label
 _atom_site_symmetry_multiplicity
 _atom_site_fract_x
 _atom_site_fract_y
 _atom_site_fract_z
 _atom_site_occupancy
  Li  Li0  1  0.99935617  0.15521482  0.49176144  1
  Li  Li1  1  0.24828287  0.32806637  0.99695866  1
  Li  Li2  1  0.25399590  0.67286579  0.49127530  1
  Li  Li3  1  0.74589849  0.67490134  0.49008528  1
  Cu  Cu4  1  0.50132568  0.82072178  0.99886237  1
  Cu  Cu5  1  0.74997639  0.33192700  0.00448792  1
  P  P6  1  0.00512153  0.82726855  0.99739130  1
  P  P7  1  0.49469173  0.17851915  0.49764638  1
  O  O8  1  0.01360828  0.09965338  0.89271618  1
  O  O9  1  0.00021002  0.82038532  0.30485312  1
  O  O10  1  0.20356401  0.67911117  0.88964256  1
  O  O11  1  0.29218660  0.31304315  0.38690777  1
  O  O12  1  0.48705197  0.18896704  0.80425931  1
  O  O13  1  0.49838966  0.89850961  0.40829994  1
  O  O14  1  0.70575838  0.31205988  0.40800016  1
  O  O15  1  0.80058231  0.69878464  0.87944431  1
