# generated using pymatgen
data_Tl2O
_symmetry_space_group_name_H-M   'P 1'
_cell_length_a   13.33813599
_cell_length_b   13.33813599
_cell_length_c   13.33813599
_cell_angle_alpha   15.61745319
_cell_angle_beta   15.61745320
_cell_angle_gamma   15.61745319
_symmetry_Int_Tables_number   1
_chemical_formula_structural   Tl2O
_chemical_formula_sum   'Tl4 O2'
_cell_volume   149.86117190
_cell_formula_units_Z   2
loop_
 _symmetry_equiv_pos_site_id
 _symmetry_equiv_pos_as_xyz
  1  'x, y, z'
loop_
 _atom_site_type_symbol
 _atom_site_label
 _atom_site_symmetry_multiplicity
 _atom_site_fract_x
 _atom_site_fract_y
 _atom_site_fract_z
 _atom_site_occupancy
  O  O0  1  0.58324153  0.58324153  0.58324153  1
  O  O1  1  0.41675847  0.41675847  0.41675847  1
  Tl  Tl2  1  0.28825663  0.28825663  0.28825663  1
  Tl  Tl3  1  0.71174337  0.71174337  0.71174337  1
  Tl  Tl4  1  0.87847846  0.87847846  0.87847846  1
  Tl  Tl5  1  0.12152154  0.12152154  0.12152154  1
