# generated using pymatgen
data_SiSe2
_symmetry_space_group_name_H-M   'P 1'
_cell_length_a   9.03096308
_cell_length_b   9.02050880
_cell_length_c   7.03583157
_cell_angle_alpha   129.86946809
_cell_angle_beta   129.92494917
_cell_angle_gamma   89.99999770
_symmetry_Int_Tables_number   1
_chemical_formula_structural   SiSe2
_chemical_formula_sum   'Si2 Se4'
_cell_volume   241.26182219
_cell_formula_units_Z   2
loop_
 _symmetry_equiv_pos_site_id
 _symmetry_equiv_pos_as_xyz
  1  'x, y, z'
loop_
 _atom_site_type_symbol
 _atom_site_label
 _atom_site_symmetry_multiplicity
 _atom_site_fract_x
 _atom_site_fract_y
 _atom_site_fract_z
 _atom_site_occupancy
  Si  Si0  1  0.25000000  0.25000000  0.50000000  1
  Si  Si1  1  0.75000000  0.75000000  0.50000000  1
  Se  Se2  1  0.63701102  0.36122409  0.00000000  1
  Se  Se3  1  0.13701102  0.13877591  0.00000000  1
  Se  Se4  1  0.36298898  0.63877591  1.00000000  1
  Se  Se5  1  0.86298898  0.86122409  1.00000000  1
