# generated using pymatgen
data_Li2V(PO4)2
_symmetry_space_group_name_H-M   'P 1'
_cell_length_a   5.08056322
_cell_length_b   8.17761884
_cell_length_c   7.31320367
_cell_angle_alpha   90.00000000
_cell_angle_beta   99.33609976
_cell_angle_gamma   90.00000000
_symmetry_Int_Tables_number   1
_chemical_formula_structural   Li2V(PO4)2
_chemical_formula_sum   'Li4 V2 P4 O16'
_cell_volume   299.81624215
_cell_formula_units_Z   2
loop_
 _symmetry_equiv_pos_site_id
 _symmetry_equiv_pos_as_xyz
  1  'x, y, z'
loop_
 _atom_site_type_symbol
 _atom_site_label
 _atom_site_symmetry_multiplicity
 _atom_site_fract_x
 _atom_site_fract_y
 _atom_site_fract_z
 _atom_site_occupancy
  Li  Li0  1  0.49024547  0.01200213  0.51742801  1
  Li  Li1  1  0.53749586  0.35649373  0.12148161  1
  Li  Li2  1  0.00975353  0.51200113  0.98257199  1
  Li  Li3  1  0.96250314  0.85649273  0.37851839  1
  O  O4  1  0.25343363  0.67852713  0.42399335  1
  O  O5  1  0.14953432  0.06794251  0.38522077  1
  O  O6  1  0.28579034  0.39090877  0.64465078  1
  O  O7  1  0.21420866  0.89090877  0.85534822  1
  O  O8  1  0.24656537  0.17852613  0.07600765  1
  O  O9  1  0.01857858  0.36165648  0.27819704  1
  O  O10  1  0.35046468  0.56794351  0.11477823  1
  O  O11  1  0.48142042  0.86165648  0.22180396  1
  O  O12  1  0.52290500  0.13345397  0.76026265  1
  O  O13  1  0.97709400  0.63345397  0.73973735  1
  O  O14  1  0.73692191  0.33631228  0.56776541  1
  O  O15  1  0.76307809  0.83631228  0.93223459  1
  O  O16  1  0.76731358  0.12358921  0.13114104  1
  O  O17  1  0.73268642  0.62358821  0.36885996  1
  O  O18  1  0.81583497  0.90347034  0.59652174  1
  O  O19  1  0.68416303  0.40347034  0.90347926  1
  P  P20  1  0.05629285  0.17962373  0.22377209  1
  P  P21  1  0.44370715  0.67962373  0.27622891  1
  P  P22  1  0.56974926  0.31788917  0.72680059  1
  P  P23  1  0.93025174  0.81789017  0.77319941  1
  V  V24  1  0.00357704  0.49597255  0.50934338  1
  V  V25  1  0.49642196  0.99597355  0.99065562  1
