# generated using pymatgen
data_BaMnO3
_symmetry_space_group_name_H-M   'P 1'
_cell_length_a   10.05463217
_cell_length_b   10.05463218
_cell_length_c   5.04545574
_cell_angle_alpha   90.00000000
_cell_angle_beta   90.00000000
_cell_angle_gamma   120.00000001
_symmetry_Int_Tables_number   1
_chemical_formula_structural   BaMnO3
_chemical_formula_sum   'Ba6 Mn6 O18'
_cell_volume   441.73662374
_cell_formula_units_Z   6
loop_
 _symmetry_equiv_pos_site_id
 _symmetry_equiv_pos_as_xyz
  1  'x, y, z'
loop_
 _atom_site_type_symbol
 _atom_site_label
 _atom_site_symmetry_multiplicity
 _atom_site_fract_x
 _atom_site_fract_y
 _atom_site_fract_z
 _atom_site_occupancy
  O  O0  1  0.33297623  0.81359311  0.15667882  1
  O  O1  1  0.18640689  0.51938312  0.15667882  1
  O  O2  1  0.48061688  0.66702377  0.15667882  1
  O  O3  1  0.51938312  0.33297623  0.65667882  1
  O  O4  1  0.66702377  0.18640689  0.65667882  1
  O  O5  1  0.81359311  0.48061688  0.65667882  1
  O  O6  1  0.33297623  0.51938312  0.65667882  1
  O  O7  1  0.81359311  0.33297623  0.15667882  1
  O  O8  1  0.51938312  0.18640689  0.15667882  1
  O  O9  1  0.48061688  0.81359311  0.65667882  1
  O  O10  1  0.18640689  0.66702377  0.65667882  1
  O  O11  1  0.66702377  0.48061688  0.15667882  1
  O  O12  1  0.00000000  0.14711624  0.32983997  1
  O  O13  1  0.85288376  0.00000000  0.82983997  1
  O  O14  1  0.14711624  0.14711624  0.82983997  1
  O  O15  1  0.85288376  0.85288376  0.32983997  1
  O  O16  1  0.14711624  0.00000000  0.32983997  1
  O  O17  1  0.00000000  0.85288376  0.82983997  1
  Mn  Mn18  1  0.33333333  0.66666667  0.90954465  1
  Mn  Mn19  1  0.66666667  0.33333333  0.40954465  1
  Mn  Mn20  1  0.33333333  0.66666667  0.40954465  1
  Mn  Mn21  1  0.66666667  0.33333333  0.90954465  1
  Mn  Mn22  1  0.00000000  0.00000000  0.57667720  1
  Mn  Mn23  1  0.00000000  0.00000000  0.07667720  1
  Ba  Ba24  1  0.66599996  0.66599996  0.73754690  1
  Ba  Ba25  1  0.00000000  0.66599996  0.23754690  1
  Ba  Ba26  1  0.66599996  0.00000000  0.23754690  1
  Ba  Ba27  1  0.33400004  0.00000000  0.73754690  1
  Ba  Ba28  1  0.00000000  0.33400004  0.73754690  1
  Ba  Ba29  1  0.33400004  0.33400004  0.23754690  1
