# generated using pymatgen
data_CrHO2
_symmetry_space_group_name_H-M   'P 1'
_cell_length_a   3.04076442
_cell_length_b   4.36961474
_cell_length_c   4.94854274
_cell_angle_alpha   90.00000000
_cell_angle_beta   90.00000000
_cell_angle_gamma   90.00000000
_symmetry_Int_Tables_number   1
_chemical_formula_structural   CrHO2
_chemical_formula_sum   'Cr2 H2 O4'
_cell_volume   65.75113413
_cell_formula_units_Z   2
loop_
 _symmetry_equiv_pos_site_id
 _symmetry_equiv_pos_as_xyz
  1  'x, y, z'
loop_
 _atom_site_type_symbol
 _atom_site_label
 _atom_site_symmetry_multiplicity
 _atom_site_fract_x
 _atom_site_fract_y
 _atom_site_fract_z
 _atom_site_occupancy
  H  H0  1  0.50000071  0.20911488  0.96821847  1
  H  H1  1  0.00000000  0.79088546  0.46821727  1
  O  O2  1  0.00000000  0.51440588  0.62856460  1
  O  O3  1  0.50000071  0.48559446  0.12856340  1
  O  O4  1  0.50000071  0.01254319  0.84158470  1
  O  O5  1  0.00000000  0.98745715  0.34158554  1
  Cr  Cr6  1  0.50000071  0.26340376  0.48453150  1
  Cr  Cr7  1  0.00000000  0.73659658  0.98453270  1
