# generated using pymatgen
data_Y(AgCl2)3
_symmetry_space_group_name_H-M   'P 1'
_cell_length_a   7.38330872
_cell_length_b   7.38330900
_cell_length_c   7.38330879
_cell_angle_alpha   56.56392165
_cell_angle_beta   56.56392240
_cell_angle_gamma   56.56392352
_symmetry_Int_Tables_number   1
_chemical_formula_structural   Y(AgCl2)3
_chemical_formula_sum   'Y1 Ag3 Cl6'
_cell_volume   262.00585845
_cell_formula_units_Z   1
loop_
 _symmetry_equiv_pos_site_id
 _symmetry_equiv_pos_as_xyz
  1  'x, y, z'
loop_
 _atom_site_type_symbol
 _atom_site_label
 _atom_site_symmetry_multiplicity
 _atom_site_fract_x
 _atom_site_fract_y
 _atom_site_fract_z
 _atom_site_occupancy
  Ag  Ag0  1  0.20749607  0.20749607  0.20749607  1
  Ag  Ag1  1  0.50000000  0.50000000  0.50000000  1
  Ag  Ag2  1  0.79250393  0.79250393  0.79250393  1
  Cl  Cl3  1  0.10301144  0.38265951  0.77016099  1
  Cl  Cl4  1  0.38265951  0.77016099  0.10301144  1
  Cl  Cl5  1  0.77016099  0.10301144  0.38265951  1
  Cl  Cl6  1  0.22983901  0.89698856  0.61734049  1
  Cl  Cl7  1  0.61734049  0.22983901  0.89698856  1
  Cl  Cl8  1  0.89698856  0.61734049  0.22983901  1
  Y  Y9  1  0.00000000  0.00000000  0.00000000  1
