# generated using pymatgen
data_Rb2HBrO
_symmetry_space_group_name_H-M   'P 1'
_cell_length_a   4.54254383
_cell_length_b   7.13698869
_cell_length_c   9.05103115
_cell_angle_alpha   107.08084885
_cell_angle_beta   90.00000000
_cell_angle_gamma   90.00000000
_symmetry_Int_Tables_number   1
_chemical_formula_structural   Rb2HBrO
_chemical_formula_sum   'Rb4 H2 Br2 O2'
_cell_volume   280.49212862
_cell_formula_units_Z   2
loop_
 _symmetry_equiv_pos_site_id
 _symmetry_equiv_pos_as_xyz
  1  'x, y, z'
loop_
 _atom_site_type_symbol
 _atom_site_label
 _atom_site_symmetry_multiplicity
 _atom_site_fract_x
 _atom_site_fract_y
 _atom_site_fract_z
 _atom_site_occupancy
  H  H0  1  0.25000000  0.17288713  0.80258775  1
  H  H1  1  0.75000000  0.82711287  0.19741225  1
  O  O2  1  0.25000000  0.31584818  0.83345584  1
  O  O3  1  0.75000000  0.68415182  0.16654416  1
  Br  Br4  1  0.25000000  0.17916937  0.30024484  1
  Br  Br5  1  0.75000000  0.82083063  0.69975516  1
  Rb  Rb6  1  0.75000000  0.29018967  0.03971236  1
  Rb  Rb7  1  0.25000000  0.71035311  0.38337003  1
  Rb  Rb8  1  0.75000000  0.28964689  0.61662997  1
  Rb  Rb9  1  0.25000000  0.70981033  0.96028764  1
