# generated using pymatgen
data_LiNbO3
_symmetry_space_group_name_H-M   'P 1'
_cell_length_a   5.54373361
_cell_length_b   5.54373493
_cell_length_c   5.54373823
_cell_angle_alpha   56.75262428
_cell_angle_beta   56.75262374
_cell_angle_gamma   56.75263043
_symmetry_Int_Tables_number   1
_chemical_formula_structural   LiNbO3
_chemical_formula_sum   'Li2 Nb2 O6'
_cell_volume   111.44213544
_cell_formula_units_Z   2
loop_
 _symmetry_equiv_pos_site_id
 _symmetry_equiv_pos_as_xyz
  1  'x, y, z'
loop_
 _atom_site_type_symbol
 _atom_site_label
 _atom_site_symmetry_multiplicity
 _atom_site_fract_x
 _atom_site_fract_y
 _atom_site_fract_z
 _atom_site_occupancy
  O  O0  1  0.87029881  0.62955760  0.24994811  1
  O  O1  1  0.24994762  0.87029828  0.62955866  1
  Li  Li2  1  0.75002052  0.75001945  0.75001966  1
  Nb  Nb3  1  0.00007348  0.00007650  0.00007563  1
  O  O4  1  0.12955783  0.37029855  0.74994768  1
  O  O5  1  0.37029941  0.74994769  0.12955741  1
  O  O6  1  0.74994765  0.12955731  0.37029891  1
  O  O7  1  0.62955846  0.24994683  0.87029927  1
  Li  Li8  1  0.25001972  0.25001997  0.25001992  1
  Nb  Nb9  1  0.50007649  0.50007780  0.50007475  1
