# generated using pymatgen
data_Li2Fe2SiO6
_symmetry_space_group_name_H-M   'P 1'
_cell_length_a   5.38210929
_cell_length_b   5.53897674
_cell_length_c   6.06138145
_cell_angle_alpha   90.00000000
_cell_angle_beta   90.00000000
_cell_angle_gamma   119.06750612
_symmetry_Int_Tables_number   1
_chemical_formula_structural   Li2Fe2SiO6
_chemical_formula_sum   'Li2 Fe2 Si1 O6'
_cell_volume   157.93882421
_cell_formula_units_Z   1
loop_
 _symmetry_equiv_pos_site_id
 _symmetry_equiv_pos_as_xyz
  1  'x, y, z'
loop_
 _atom_site_type_symbol
 _atom_site_label
 _atom_site_symmetry_multiplicity
 _atom_site_fract_x
 _atom_site_fract_y
 _atom_site_fract_z
 _atom_site_occupancy
  Li  Li0  1  0.00000000  0.00000000  0.28568766  1
  Li  Li1  1  0.00000000  0.00000000  0.71431234  1
  Fe  Fe2  1  0.00000000  0.50000000  0.67013909  1
  Fe  Fe3  1  0.50000000  0.50000000  0.32986091  1
  Si  Si4  1  0.50000000  0.00000000  0.00000000  1
  O  O5  1  0.22046097  0.81694648  0.84453052  1
  O  O6  1  0.16270675  0.32541250  0.50000000  1
  O  O7  1  0.59648550  0.81694648  0.15546948  1
  O  O8  1  0.40351450  0.18305352  0.15546948  1
  O  O9  1  0.83729325  0.67458750  0.50000000  1
  O  O10  1  0.77953903  0.18305352  0.84453052  1
