# generated using pymatgen
data_CrP(HO)5
_symmetry_space_group_name_H-M   'P 1'
_cell_length_a   6.82348103
_cell_length_b   7.63402531
_cell_length_c   9.32778036
_cell_angle_alpha   90.00000000
_cell_angle_beta   90.00000000
_cell_angle_gamma   90.00000000
_symmetry_Int_Tables_number   1
_chemical_formula_structural   CrP(HO)5
_chemical_formula_sum   'Cr4 P4 H20 O20'
_cell_volume   485.88992640
_cell_formula_units_Z   4
loop_
 _symmetry_equiv_pos_site_id
 _symmetry_equiv_pos_as_xyz
  1  'x, y, z'
loop_
 _atom_site_type_symbol
 _atom_site_label
 _atom_site_symmetry_multiplicity
 _atom_site_fract_x
 _atom_site_fract_y
 _atom_site_fract_z
 _atom_site_occupancy
  Cr  Cr0  1  0.47594940  0.78261292  0.84454360  1
  Cr  Cr1  1  0.97594940  0.21738708  0.65545640  1
  Cr  Cr2  1  0.02405060  0.28261292  0.15545640  1
  Cr  Cr3  1  0.52405060  0.71738708  0.34454360  1
  P  P4  1  0.73117363  0.42894168  0.90026221  1
  P  P5  1  0.23117363  0.57105832  0.59973779  1
  P  P6  1  0.76882637  0.92894168  0.09973779  1
  P  P7  1  0.26882637  0.07105832  0.40026221  1
  O  O8  1  0.74359060  0.27726395  0.79069875  1
  O  O9  1  0.24359060  0.72273605  0.70930125  1
  O  O10  1  0.75640940  0.77726395  0.20930125  1
  O  O11  1  0.25640940  0.22273605  0.29069875  1
  O  O12  1  0.53101289  0.52240138  0.89317960  1
  O  O13  1  0.03101289  0.47759862  0.60682040  1
  O  O14  1  0.96898711  0.02240138  0.10682040  1
  O  O15  1  0.46898711  0.97759862  0.39317960  1
  O  O16  1  0.76982765  0.36599615  0.05539879  1
  O  O17  1  0.26982765  0.63400385  0.44460121  1
  O  O18  1  0.73017235  0.86599615  0.94460121  1
  O  O19  1  0.23017235  0.13400385  0.55539879  1
  O  O20  1  0.44230803  0.04631985  0.78031096  1
  O  O21  1  0.94230803  0.95368015  0.71968904  1
  O  O22  1  0.05769197  0.54631985  0.21968904  1
  O  O23  1  0.55769197  0.45368015  0.28031096  1
  O  O24  1  0.71841921  0.69718488  0.55727986  1
  O  O25  1  0.21841921  0.30281512  0.94272014  1
  O  O26  1  0.78158079  0.19718488  0.44272014  1
  O  O27  1  0.28158079  0.80281512  0.05727986  1
  H  H28  1  0.87866585  0.54949538  0.86397732  1
  H  H29  1  0.37866585  0.45050462  0.63602268  1
  H  H30  1  0.62133415  0.04949538  0.13602268  1
  H  H31  1  0.12133415  0.95050462  0.36397732  1
  H  H32  1  0.55872362  0.12690052  0.78445084  1
  H  H33  1  0.05872362  0.87309948  0.71554916  1
  H  H34  1  0.94127638  0.62690052  0.21554916  1
  H  H35  1  0.44127638  0.37309948  0.28445084  1
  H  H36  1  0.37245362  0.07078233  0.68695868  1
  H  H37  1  0.87245362  0.92921767  0.81304132  1
  H  H38  1  0.12754638  0.57078233  0.31304132  1
  H  H39  1  0.62754638  0.42921767  0.18695868  1
  H  H40  1  0.77718829  0.80587677  0.59427011  1
  H  H41  1  0.27718829  0.19412323  0.90572989  1
  H  H42  1  0.72281171  0.30587677  0.40572989  1
  H  H43  1  0.22281171  0.69412323  0.09427011  1
  H  H44  1  0.82490694  0.60932495  0.57058533  1
  H  H45  1  0.32490694  0.39067505  0.92941467  1
  H  H46  1  0.67509306  0.10932495  0.42941467  1
  H  H47  1  0.17509306  0.89067505  0.07058533  1
