# generated using pymatgen
data_Rb2CoI4
_symmetry_space_group_name_H-M   'P 1'
_cell_length_a   7.82300625
_cell_length_b   8.26010876
_cell_length_c   10.55108771
_cell_angle_alpha   90.00000000
_cell_angle_beta   109.39559147
_cell_angle_gamma   90.00000000
_symmetry_Int_Tables_number   1
_chemical_formula_structural   Rb2CoI4
_chemical_formula_sum   'Rb4 Co2 I8'
_cell_volume   643.10615634
_cell_formula_units_Z   2
loop_
 _symmetry_equiv_pos_site_id
 _symmetry_equiv_pos_as_xyz
  1  'x, y, z'
loop_
 _atom_site_type_symbol
 _atom_site_label
 _atom_site_symmetry_multiplicity
 _atom_site_fract_x
 _atom_site_fract_y
 _atom_site_fract_z
 _atom_site_occupancy
  Co  Co0  1  0.30348953  0.25000000  0.21441204  1
  Co  Co1  1  0.69651047  0.75000000  0.78558796  1
  Rb  Rb2  1  0.30006193  0.75000000  0.96246590  1
  Rb  Rb3  1  0.69993807  0.25000000  0.03753410  1
  Rb  Rb4  1  0.79684632  0.25000000  0.58553716  1
  Rb  Rb5  1  0.20315368  0.75000000  0.41446284  1
  I  I6  1  0.85980787  0.75000000  0.04357894  1
  I  I7  1  0.14019213  0.25000000  0.95642106  1
  I  I8  1  0.91346595  0.75000000  0.64661578  1
  I  I9  1  0.08653405  0.25000000  0.35338422  1
  I  I10  1  0.48539570  0.99896089  0.72322505  1
  I  I11  1  0.51460430  0.49896089  0.27677495  1
  I  I12  1  0.51460430  0.00103911  0.27677495  1
  I  I13  1  0.48539570  0.50103911  0.72322505  1
