# generated using pymatgen
data_Si3Ag3(SnP3)2
_symmetry_space_group_name_H-M   'P 1'
_cell_length_a   9.07066982
_cell_length_b   9.07066982
_cell_length_c   9.07066982
_cell_angle_alpha   109.47122066
_cell_angle_beta   109.47122065
_cell_angle_gamma   109.47122063
_symmetry_Int_Tables_number   1
_chemical_formula_structural   Si3Ag3(SnP3)2
_chemical_formula_sum   'Si6 Ag6 Sn4 P12'
_cell_volume   574.50813763
_cell_formula_units_Z   2
loop_
 _symmetry_equiv_pos_site_id
 _symmetry_equiv_pos_as_xyz
  1  'x, y, z'
loop_
 _atom_site_type_symbol
 _atom_site_label
 _atom_site_symmetry_multiplicity
 _atom_site_fract_x
 _atom_site_fract_y
 _atom_site_fract_z
 _atom_site_occupancy
  Si  Si0  1  0.25000000  0.75000000  0.50000000  1
  Si  Si1  1  0.50000000  0.75000000  0.25000000  1
  Si  Si2  1  0.75000000  0.25000000  0.50000000  1
  Si  Si3  1  0.25000000  0.50000000  0.75000000  1
  Si  Si4  1  0.75000000  0.50000000  0.25000000  1
  Si  Si5  1  0.50000000  0.25000000  0.75000000  1
  P  P6  1  0.24764586  0.74851768  0.24764586  1
  P  P7  1  0.74851768  0.24764586  0.24764586  1
  P  P8  1  0.00000000  0.75235414  0.50087182  1
  P  P9  1  0.75235414  0.50087182  0.00000000  1
  P  P10  1  0.75235414  0.00000000  0.50087182  1
  P  P11  1  0.50087182  0.00000000  0.75235414  1
  P  P12  1  0.00000000  0.50087182  0.75235414  1
  P  P13  1  0.25148232  0.49912818  0.49912818  1
  P  P14  1  0.24764586  0.24764586  0.74851768  1
  P  P15  1  0.49912818  0.25148232  0.49912818  1
  P  P16  1  0.49912818  0.49912818  0.25148232  1
  P  P17  1  0.50087182  0.75235414  0.00000000  1
  Ag  Ag18  1  0.00000000  0.19894870  0.19894870  1
  Ag  Ag19  1  0.80105130  0.00000000  0.80105130  1
  Ag  Ag20  1  0.19894870  0.00000000  0.19894870  1
  Ag  Ag21  1  0.19894870  0.19894870  0.00000000  1
  Ag  Ag22  1  0.00000000  0.80105130  0.80105130  1
  Ag  Ag23  1  0.80105130  0.80105130  0.00000000  1
  Sn  Sn24  1  0.59046847  0.59046847  0.59046847  1
  Sn  Sn25  1  0.40953153  0.00000000  0.00000000  1
  Sn  Sn26  1  0.00000000  0.40953153  0.00000000  1
  Sn  Sn27  1  0.00000000  0.00000000  0.40953153  1
