# generated using pymatgen
data_BH6N
_symmetry_space_group_name_H-M   'P 1'
_cell_length_a   5.00531975
_cell_length_b   5.24428857
_cell_length_c   5.41545036
_cell_angle_alpha   90.00000000
_cell_angle_beta   90.00000000
_cell_angle_gamma   90.00000000
_symmetry_Int_Tables_number   1
_chemical_formula_structural   BH6N
_chemical_formula_sum   'B2 H12 N2'
_cell_volume   142.15200400
_cell_formula_units_Z   2
loop_
 _symmetry_equiv_pos_site_id
 _symmetry_equiv_pos_as_xyz
  1  'x, y, z'
loop_
 _atom_site_type_symbol
 _atom_site_label
 _atom_site_symmetry_multiplicity
 _atom_site_fract_x
 _atom_site_fract_y
 _atom_site_fract_z
 _atom_site_occupancy
  B  B0  1  0.16542902  0.00941760  -0.00000000  1
  B  B1  1  0.83457098  0.50941760  0.50000000  1
  H  H2  1  0.73689320  0.41219166  0.68393616  1
  H  H3  1  0.85369715  0.89617944  0.34653547  1
  H  H4  1  0.14630285  0.39617944  0.84653547  1
  H  H5  1  0.42764918  0.34609700  -0.00000000  1
  H  H6  1  0.73689320  0.41219166  0.31606384  1
  H  H7  1  0.92155399  0.98658190  -0.00000000  1
  H  H8  1  0.07844601  0.48658190  0.50000000  1
  H  H9  1  0.26310680  0.91219166  0.18393616  1
  H  H10  1  0.26310680  0.91219166  0.81606384  1
  H  H11  1  0.14630285  0.39617944  0.15346453  1
  H  H12  1  0.57235082  0.84609700  0.50000000  1
  H  H13  1  0.85369715  0.89617944  0.65346453  1
  N  N14  1  0.77288296  0.80826129  0.50000000  1
  N  N15  1  0.22711704  0.30826129  -0.00000000  1
