# generated using pymatgen
data_Nb2SiTe4
_symmetry_space_group_name_H-M   'P 1'
_cell_length_a   6.40375548
_cell_length_b   7.96872176
_cell_length_c   15.46859489
_cell_angle_alpha   90.00000000
_cell_angle_beta   97.47549177
_cell_angle_gamma   90.00000000
_symmetry_Int_Tables_number   1
_chemical_formula_structural   Nb2SiTe4
_chemical_formula_sum   'Nb8 Si4 Te16'
_cell_volume   782.64939171
_cell_formula_units_Z   4
loop_
 _symmetry_equiv_pos_site_id
 _symmetry_equiv_pos_as_xyz
  1  'x, y, z'
loop_
 _atom_site_type_symbol
 _atom_site_label
 _atom_site_symmetry_multiplicity
 _atom_site_fract_x
 _atom_site_fract_y
 _atom_site_fract_z
 _atom_site_occupancy
  Si  Si0  1  1.00000985  0.62536411  0.24992612  1
  Si  Si1  1  0.49999015  0.12536411  0.25007388  1
  Si  Si2  1  -0.00000985  0.37463589  0.75007388  1
  Si  Si3  1  0.50000985  0.87463589  0.74992612  1
  Nb  Nb4  1  0.10398857  0.03737807  0.74994200  1
  Nb  Nb5  1  0.39601143  0.53737807  0.75005800  1
  Nb  Nb6  1  0.89601143  0.96262193  0.25005800  1
  Nb  Nb7  1  0.60398857  0.46262193  0.24994200  1
  Nb  Nb8  1  0.39585148  0.78802378  0.25002176  1
  Nb  Nb9  1  0.10414852  0.28802378  0.24997824  1
  Nb  Nb10  1  0.60414852  0.21197622  0.74997824  1
  Nb  Nb11  1  0.89585148  0.71197622  0.75002176  1
  Te  Te12  1  0.73943734  0.98303303  0.62658011  1
  Te  Te13  1  0.76056266  0.48303303  0.87341989  1
  Te  Te14  1  0.26056266  0.01696697  0.37341989  1
  Te  Te15  1  0.23943734  0.51696697  0.12658011  1
  Te  Te16  1  0.26054460  0.76648995  0.87335431  1
  Te  Te17  1  0.23945540  0.26648995  0.62664569  1
  Te  Te18  1  0.73945540  0.23351005  0.12664569  1
  Te  Te19  1  0.76054460  0.73351005  0.37335431  1
  Te  Te20  1  0.68307269  0.48309911  0.62661818  1
  Te  Te21  1  0.81692731  0.98309911  0.87338182  1
  Te  Te22  1  0.31692731  0.51690089  0.37338182  1
  Te  Te23  1  0.18307269  0.01690089  0.12661818  1
  Te  Te24  1  0.31722707  0.26598695  0.87337691  1
  Te  Te25  1  0.18277293  0.76598695  0.62662309  1
  Te  Te26  1  0.68277293  0.73401305  0.12662309  1
  Te  Te27  1  0.81722707  0.23401305  0.37337691  1
