# generated using pymatgen
data_Nb2GeTe4
_symmetry_space_group_name_H-M   'P 1'
_cell_length_a   6.54705045
_cell_length_b   8.00733699
_cell_length_c   15.89108832
_cell_angle_alpha   90.00000000
_cell_angle_beta   97.53325074
_cell_angle_gamma   90.00000000
_symmetry_Int_Tables_number   1
_chemical_formula_structural   Nb2GeTe4
_chemical_formula_sum   'Nb8 Ge4 Te16'
_cell_volume   825.89102266
_cell_formula_units_Z   4
loop_
 _symmetry_equiv_pos_site_id
 _symmetry_equiv_pos_as_xyz
  1  'x, y, z'
loop_
 _atom_site_type_symbol
 _atom_site_label
 _atom_site_symmetry_multiplicity
 _atom_site_fract_x
 _atom_site_fract_y
 _atom_site_fract_z
 _atom_site_occupancy
  Ge  Ge0  1  0.00001301  0.62559687  0.24985161  1
  Ge  Ge1  1  0.49998699  0.12559687  0.25014839  1
  Ge  Ge2  1  0.99998699  0.37440313  0.75014839  1
  Ge  Ge3  1  0.50001301  0.87440313  0.74985161  1
  Nb  Nb4  1  0.10738585  0.03437279  0.74995942  1
  Nb  Nb5  1  0.39261415  0.53437279  0.75004058  1
  Nb  Nb6  1  0.89261415  0.96562721  0.25004058  1
  Nb  Nb7  1  0.60738585  0.46562721  0.24995942  1
  Nb  Nb8  1  0.39272491  0.78547885  0.25003721  1
  Nb  Nb9  1  0.10727509  0.28547885  0.24996279  1
  Nb  Nb10  1  0.60727509  0.21452115  0.74996279  1
  Nb  Nb11  1  0.89272491  0.71452115  0.75003721  1
  Te  Te12  1  0.75117825  0.98979869  0.62941450  1
  Te  Te13  1  0.74882175  0.48979869  0.87058550  1
  Te  Te14  1  0.24882175  0.01020131  0.37058550  1
  Te  Te15  1  0.25117825  0.51020131  0.12941450  1
  Te  Te16  1  0.24911910  0.75929743  0.87055465  1
  Te  Te17  1  0.25088090  0.25929743  0.62944535  1
  Te  Te18  1  0.75088090  0.24070257  0.12944535  1
  Te  Te19  1  0.74911910  0.74070257  0.37055465  1
  Te  Te20  1  0.67223466  0.48975446  0.62954531  1
  Te  Te21  1  0.82776534  0.98975446  0.87045469  1
  Te  Te22  1  0.32776534  0.51024554  0.37045469  1
  Te  Te23  1  0.17223466  0.01024554  0.12954531  1
  Te  Te24  1  0.32808352  0.25883576  0.87057505  1
  Te  Te25  1  0.17191648  0.75883576  0.62942495  1
  Te  Te26  1  0.67191648  0.74116424  0.12942495  1
  Te  Te27  1  0.82808352  0.24116424  0.37057505  1
