# generated using pymatgen
data_Ti(CuS)4
_symmetry_space_group_name_H-M   'P 1'
_cell_length_a   5.44246982
_cell_length_b   5.44246982
_cell_length_c   6.55423749
_cell_angle_alpha   114.53110015
_cell_angle_beta   114.53110020
_cell_angle_gamma   89.99999999
_symmetry_Int_Tables_number   1
_chemical_formula_structural   Ti(CuS)4
_chemical_formula_sum   'Ti1 Cu4 S4'
_cell_volume   157.14993682
_cell_formula_units_Z   1
loop_
 _symmetry_equiv_pos_site_id
 _symmetry_equiv_pos_as_xyz
  1  'x, y, z'
loop_
 _atom_site_type_symbol
 _atom_site_label
 _atom_site_symmetry_multiplicity
 _atom_site_fract_x
 _atom_site_fract_y
 _atom_site_fract_z
 _atom_site_occupancy
  S  S0  1  0.88121010  0.88121010  0.25083538  1
  S  S1  1  0.63037472  0.11878990  0.74916462  1
  S  S2  1  0.11878990  0.63037472  0.74916462  1
  S  S3  1  0.36962528  0.36962528  0.25083538  1
  Ti  Ti4  1  0.00000000  0.00000000  0.00000000  1
  Cu  Cu5  1  0.50000000  0.00000000  0.00000000  1
  Cu  Cu6  1  0.00000000  0.50000000  0.00000000  1
  Cu  Cu7  1  0.25814804  0.25814804  0.51629608  1
  Cu  Cu8  1  0.74185196  0.74185196  0.48370392  1
