# generated using pymatgen
data_Si3Ru2
_symmetry_space_group_name_H-M   'P 1'
_cell_length_a   5.57460302
_cell_length_b   9.01188438
_cell_length_c   11.14861353
_cell_angle_alpha   90.00000000
_cell_angle_beta   90.00000000
_cell_angle_gamma   90.00000000
_symmetry_Int_Tables_number   1
_chemical_formula_structural   Si3Ru2
_chemical_formula_sum   'Si24 Ru16'
_cell_volume   560.08045534
_cell_formula_units_Z   8
loop_
 _symmetry_equiv_pos_site_id
 _symmetry_equiv_pos_as_xyz
  1  'x, y, z'
loop_
 _atom_site_type_symbol
 _atom_site_label
 _atom_site_symmetry_multiplicity
 _atom_site_fract_x
 _atom_site_fract_y
 _atom_site_fract_z
 _atom_site_occupancy
  Si  Si0  1  0.60514924  0.10535569  0.63150780  1
  Si  Si1  1  0.10514924  0.39464431  0.86849220  1
  Si  Si2  1  0.89485076  0.10535569  0.36849220  1
  Si  Si3  1  0.39485076  0.39464431  0.13150780  1
  Si  Si4  1  0.39485076  0.89464431  0.36849220  1
  Si  Si5  1  0.89485076  0.60535569  0.13150780  1
  Si  Si6  1  0.10514924  0.89464431  0.63150780  1
  Si  Si7  1  0.60514924  0.60535569  0.86849220  1
  Si  Si8  1  0.91320242  0.06348201  0.82052281  1
  Si  Si9  1  0.41320242  0.43651799  0.67947719  1
  Si  Si10  1  0.58679758  0.06348201  0.17947719  1
  Si  Si11  1  0.08679758  0.43651799  0.32052281  1
  Si  Si12  1  0.08679758  0.93651799  0.17947719  1
  Si  Si13  1  0.58679758  0.56348201  0.32052281  1
  Si  Si14  1  0.41320242  0.93651799  0.82052281  1
  Si  Si15  1  0.91320242  0.56348201  0.67947719  1
  Si  Si16  1  0.55547160  0.70759941  0.57341187  1
  Si  Si17  1  0.05547160  0.79240059  0.92658813  1
  Si  Si18  1  0.94452840  0.70759941  0.42658813  1
  Si  Si19  1  0.44452840  0.79240059  0.07341187  1
  Si  Si20  1  0.44452840  0.29240059  0.42658813  1
  Si  Si21  1  0.94452840  0.20759941  0.07341187  1
  Si  Si22  1  0.05547160  0.29240059  0.57341187  1
  Si  Si23  1  0.55547160  0.20759941  0.92658813  1
  Ru  Ru24  1  0.75000000  0.92481934  0.50000000  1
  Ru  Ru25  1  0.25000000  0.57518066  0.00000000  1
  Ru  Ru26  1  0.25000000  0.07518066  0.50000000  1
  Ru  Ru27  1  0.75000000  0.42481934  0.00000000  1
  Ru  Ru28  1  0.75000000  0.45917208  0.50000000  1
  Ru  Ru29  1  0.25000000  0.04082792  0.00000000  1
  Ru  Ru30  1  0.25000000  0.54082792  0.50000000  1
  Ru  Ru31  1  0.75000000  0.95917208  0.00000000  1
  Ru  Ru32  1  0.76384734  0.31263980  0.74588600  1
  Ru  Ru33  1  0.26384734  0.18736020  0.75411400  1
  Ru  Ru34  1  0.73615266  0.31263980  0.25411400  1
  Ru  Ru35  1  0.23615266  0.18736020  0.24588600  1
  Ru  Ru36  1  0.23615266  0.68736020  0.25411400  1
  Ru  Ru37  1  0.73615266  0.81263980  0.24588600  1
  Ru  Ru38  1  0.26384734  0.68736020  0.74588600  1
  Ru  Ru39  1  0.76384734  0.81263980  0.75411400  1
