# generated using pymatgen
data_LiSn2P4H3O16
_symmetry_space_group_name_H-M   'P 1'
_cell_length_a   4.97706797
_cell_length_b   8.15995560
_cell_length_c   7.63296451
_cell_angle_alpha   89.19987268
_cell_angle_beta   102.62839866
_cell_angle_gamma   88.40653230
_symmetry_Int_Tables_number   1
_chemical_formula_structural   LiSn2P4H3O16
_chemical_formula_sum   'Li1 Sn2 P4 H3 O16'
_cell_volume   302.31488292
_cell_formula_units_Z   1
loop_
 _symmetry_equiv_pos_site_id
 _symmetry_equiv_pos_as_xyz
  1  'x, y, z'
loop_
 _atom_site_type_symbol
 _atom_site_label
 _atom_site_symmetry_multiplicity
 _atom_site_fract_x
 _atom_site_fract_y
 _atom_site_fract_z
 _atom_site_occupancy
  Li  Li0  1  0.87373438  0.65623928  0.33388476  1
  Sn  Sn1  1  0.00162851  0.00313563  0.49995565  1
  Sn  Sn2  1  0.49489094  0.50029467  0.99499542  1
  P  P3  1  0.11990114  0.33527533  0.24692462  1
  P  P4  1  0.37616715  0.84689452  0.23354680  1
  P  P5  1  0.61748226  0.15911679  0.75722939  1
  P  P6  1  0.88297050  0.67262944  0.75384250  1
  H  H7  1  0.44179752  0.35800901  0.48230198  1
  H  H8  1  0.56105340  0.56394743  0.55441292  1
  H  H9  1  0.95359673  0.01675173  0.97375864  1
  O  O10  1  0.11408537  0.55548442  0.84657309  1
  O  O11  1  0.02320076  0.17020603  0.29814508  1
  O  O12  1  0.18544355  0.81693692  0.37571453  1
  O  O13  1  0.27600612  0.42323762  0.42635982  1
  O  O14  1  0.35872462  0.07040211  0.66524942  1
  O  O15  1  0.54435874  0.33841060  0.80086744  1
  O  O16  1  0.22735393  0.93770572  0.06913777  1
  O  O17  1  0.32087691  0.31736386  0.12117747  1
  O  O18  1  0.65424972  0.68402299  0.86058322  1
  O  O19  1  0.75632014  0.06745077  0.93178460  1
  O  O20  1  0.47778344  0.66748788  0.19538299  1
  O  O21  1  0.64194312  0.92435224  0.34091805  1
  O  O22  1  0.75416750  0.59089930  0.56418865  1
  O  O23  1  0.80204669  0.18009743  0.61711333  1
  O  O24  1  0.98039961  0.83879342  0.70572030  1
  O  O25  1  0.88006524  0.45941384  0.17498058  1
