# generated using pymatgen
data_HfO2
_symmetry_space_group_name_H-M   'P 1'
_cell_length_a   5.04013818
_cell_length_b   5.07445131
_cell_length_c   5.26927564
_cell_angle_alpha   90.00000000
_cell_angle_beta   90.00000000
_cell_angle_gamma   90.00000000
_symmetry_Int_Tables_number   1
_chemical_formula_structural   HfO2
_chemical_formula_sum   'Hf4 O8'
_cell_volume   134.76665543
_cell_formula_units_Z   4
loop_
 _symmetry_equiv_pos_site_id
 _symmetry_equiv_pos_as_xyz
  1  'x, y, z'
loop_
 _atom_site_type_symbol
 _atom_site_label
 _atom_site_symmetry_multiplicity
 _atom_site_fract_x
 _atom_site_fract_y
 _atom_site_fract_z
 _atom_site_occupancy
  Hf  Hf0  1  0.26743577  0.24256942  0.03379538  1
  Hf  Hf1  1  0.26743577  0.74256942  0.46620462  1
  Hf  Hf2  1  0.73256423  0.24256942  0.53379538  1
  Hf  Hf3  1  0.73256423  0.74256942  0.96620462  1
  O  O4  1  0.07214306  0.37684671  0.36791105  1
  O  O5  1  0.07214306  0.87684671  0.13208895  1
  O  O6  1  0.45979740  0.49358386  0.73328832  1
  O  O7  1  0.45979740  0.99358386  0.76671168  1
  O  O8  1  0.54020260  0.99358386  0.26671168  1
  O  O9  1  0.54020260  0.49358386  0.23328832  1
  O  O10  1  0.92785694  0.37684671  0.86791105  1
  O  O11  1  0.92785694  0.87684671  0.63208895  1
