# generated using pymatgen
data_TlZnAsO4
_symmetry_space_group_name_H-M   'P 1'
_cell_length_a   5.73520112
_cell_length_b   9.11082896
_cell_length_c   9.17394860
_cell_angle_alpha   91.05618755
_cell_angle_beta   90.00000000
_cell_angle_gamma   90.00000000
_symmetry_Int_Tables_number   1
_chemical_formula_structural   TlZnAsO4
_chemical_formula_sum   'Tl4 Zn4 As4 O16'
_cell_volume   479.27972275
_cell_formula_units_Z   4
loop_
 _symmetry_equiv_pos_site_id
 _symmetry_equiv_pos_as_xyz
  1  'x, y, z'
loop_
 _atom_site_type_symbol
 _atom_site_label
 _atom_site_symmetry_multiplicity
 _atom_site_fract_x
 _atom_site_fract_y
 _atom_site_fract_z
 _atom_site_occupancy
  O  O0  1  0.91254661  0.67434076  0.24900280  1
  O  O1  1  0.41254661  0.32565924  0.75099720  1
  O  O2  1  0.29185581  0.22306760  0.43345098  1
  O  O3  1  0.79185581  0.77693240  0.56654902  1
  O  O4  1  0.24744243  0.21198593  0.01736674  1
  O  O5  1  0.74744243  0.78801407  0.98263326  1
  O  O6  1  0.89912268  0.32174316  0.28484456  1
  O  O7  1  0.39912268  0.67825684  0.71515544  1
  O  O8  1  0.34170260  0.79423650  0.43841701  1
  O  O9  1  0.84170260  0.20576350  0.56158299  1
  O  O10  1  0.72376109  0.21360714  0.96519533  1
  O  O11  1  0.22376109  0.78639286  0.03480467  1
  O  O12  1  0.46217097  0.98078255  0.68208355  1
  O  O13  1  0.96217097  0.01921745  0.31791645  1
  O  O14  1  0.99268368  0.52083748  0.98047087  1
  O  O15  1  0.49268368  0.47916252  0.01952913  1
  Zn  Zn16  1  0.50105154  0.17752317  0.59794960  1
  Zn  Zn17  1  0.00105154  0.82247683  0.40205040  1
  Zn  Zn18  1  0.96767262  0.32738001  0.07533956  1
  Zn  Zn19  1  0.46767262  0.67261999  0.92466044  1
  As  As20  1  0.46900679  0.30895311  0.93448868  1
  As  As21  1  0.49926814  0.81112710  0.59854298  1
  As  As22  1  0.96900679  0.69104689  0.06551132  1
  As  As23  1  0.99926814  0.18887290  0.40145702  1
  Tl  Tl24  1  0.51808272  0.50218858  0.31924575  1
  Tl  Tl25  1  0.01808272  0.49781142  0.68075425  1
  Tl  Tl26  1  0.48193232  0.99672752  0.18402871  1
  Tl  Tl27  1  0.98193232  0.00327248  0.81597129  1
