# generated using pymatgen
data_NaTlO2
_symmetry_space_group_name_H-M   'P 1'
_cell_length_a   6.91277219
_cell_length_b   9.06684751
_cell_length_c   5.86699400
_cell_angle_alpha   29.34647829
_cell_angle_beta   53.90514132
_cell_angle_gamma   40.32173632
_symmetry_Int_Tables_number   1
_chemical_formula_structural   NaTlO2
_chemical_formula_sum   'Na2 Tl2 O4'
_cell_volume   113.26635715
_cell_formula_units_Z   2
loop_
 _symmetry_equiv_pos_site_id
 _symmetry_equiv_pos_as_xyz
  1  'x, y, z'
loop_
 _atom_site_type_symbol
 _atom_site_label
 _atom_site_symmetry_multiplicity
 _atom_site_fract_x
 _atom_site_fract_y
 _atom_site_fract_z
 _atom_site_occupancy
  Na  Na0  1  0.25000102  0.50000000  0.00000000  1
  Na  Na1  1  0.49999898  0.00000000  0.00000000  1
  O  O2  1  0.52116967  0.49999756  0.45766394  1
  O  O3  1  0.22883033  0.00000244  0.54233606  1
  O  O4  1  0.97882874  0.50000244  0.54233606  1
  O  O5  1  0.77117126  0.99999756  0.45766394  1
  Tl  Tl6  1  1.00000045  0.00000000  0.00000000  1
  Tl  Tl7  1  0.74999955  0.50000000  0.00000000  1
