# generated using pymatgen
data_Li4VF8
_symmetry_space_group_name_H-M   'P 1'
_cell_length_a   5.17624633
_cell_length_b   5.27266609
_cell_length_c   6.08210476
_cell_angle_alpha   90.00000000
_cell_angle_beta   90.00000000
_cell_angle_gamma   112.12158510
_symmetry_Int_Tables_number   1
_chemical_formula_structural   Li4VF8
_chemical_formula_sum   'Li4 V1 F8'
_cell_volume   153.77703157
_cell_formula_units_Z   1
loop_
 _symmetry_equiv_pos_site_id
 _symmetry_equiv_pos_as_xyz
  1  'x, y, z'
loop_
 _atom_site_type_symbol
 _atom_site_label
 _atom_site_symmetry_multiplicity
 _atom_site_fract_x
 _atom_site_fract_y
 _atom_site_fract_z
 _atom_site_occupancy
  Li  Li0  1  0.00000000  0.50000000  0.81530085  1
  Li  Li1  1  0.50000000  0.50000000  0.00787547  1
  Li  Li2  1  0.50000000  0.00000000  0.76416140  1
  Li  Li3  1  0.50000000  0.00000000  0.21026149  1
  V  V4  1  0.50000000  0.50000000  0.49598771  1
  F  F5  1  0.29515276  0.73294120  0.51032477  1
  F  F6  1  0.30129433  0.73838620  0.98165237  1
  F  F7  1  0.26239359  0.28373910  0.71866022  1
  F  F8  1  0.28633000  0.26677483  0.27932817  1
  F  F9  1  0.71367000  0.73322517  0.27932817  1
  F  F10  1  0.73760641  0.71626090  0.71866022  1
  F  F11  1  0.69870567  0.26161380  0.98165237  1
  F  F12  1  0.70484724  0.26705880  0.51032477  1
