# generated using pymatgen
data_LiCrP2O7
_symmetry_space_group_name_H-M   'P 1'
_cell_length_a   5.24672950
_cell_length_b   5.24672950
_cell_length_c   4.52164465
_cell_angle_alpha   81.60532803
_cell_angle_beta   98.39467206
_cell_angle_gamma   77.47671040
_symmetry_Int_Tables_number   1
_chemical_formula_structural   LiCrP2O7
_chemical_formula_sum   'Li1 Cr1 P2 O7'
_cell_volume   118.15801913
_cell_formula_units_Z   1
loop_
 _symmetry_equiv_pos_site_id
 _symmetry_equiv_pos_as_xyz
  1  'x, y, z'
loop_
 _atom_site_type_symbol
 _atom_site_label
 _atom_site_symmetry_multiplicity
 _atom_site_fract_x
 _atom_site_fract_y
 _atom_site_fract_z
 _atom_site_occupancy
  Li  Li0  1  0.74910969  0.74910919  0.00000008  1
  O  O1  1  0.12694663  0.46333662  0.74246928  1
  O  O2  1  0.07200071  0.81501963  0.28570104  1
  O  O3  1  0.34706355  0.84823072  0.80135816  1
  O  O4  1  0.53008461  0.53008513  0.50000004  1
  O  O5  1  0.84823165  0.34706387  0.19864220  1
  O  O6  1  0.46333623  0.12694762  0.25753075  1
  O  O7  1  0.81502100  0.07199976  0.71429962  1
  P  P8  1  0.25306468  0.66812577  0.58987549  1
  P  P9  1  0.66812486  0.25306444  0.41012465  1
  Cr  Cr10  1  0.12186712  0.12186785  0.99999988  1
