# generated using pymatgen
data_ErCu(WO4)2
_symmetry_space_group_name_H-M   'P 1'
_cell_length_a   5.13962515
_cell_length_b   6.08419500
_cell_length_c   6.05972372
_cell_angle_alpha   108.90372983
_cell_angle_beta   114.40109284
_cell_angle_gamma   91.43945958
_symmetry_Int_Tables_number   1
_chemical_formula_structural   ErCu(WO4)2
_chemical_formula_sum   'Er1 Cu1 W2 O8'
_cell_volume   160.45407669
_cell_formula_units_Z   1
loop_
 _symmetry_equiv_pos_site_id
 _symmetry_equiv_pos_as_xyz
  1  'x, y, z'
loop_
 _atom_site_type_symbol
 _atom_site_label
 _atom_site_symmetry_multiplicity
 _atom_site_fract_x
 _atom_site_fract_y
 _atom_site_fract_z
 _atom_site_occupancy
  O  O0  1  0.15147643  0.62867106  0.83180200  1
  O  O1  1  0.64951754  0.49303330  0.34394324  1
  O  O2  1  0.17054040  0.17434954  0.79190401  1
  O  O3  1  0.60380831  0.03103554  0.39501017  1
  O  O4  1  0.61803480  0.91327468  0.83615997  1
  O  O5  1  0.11565701  0.77610823  0.34774701  1
  O  O6  1  0.09489346  0.23002876  0.38713489  1
  O  O7  1  0.66200636  0.37466701  0.78423073  1
  Cu  Cu8  1  0.12956988  0.19923914  0.08748332  1
  Er  Er9  1  0.63334566  0.70282581  0.08986761  1
  W  W10  1  0.88143022  0.37088208  0.57764233  1
  W  W11  1  0.38452093  0.03448586  0.60167373  1
