# generated using pymatgen
data_PHN2
_symmetry_space_group_name_H-M   'P 1'
_cell_length_a   4.77525612
_cell_length_b   4.81586197
_cell_length_c   4.89841555
_cell_angle_alpha   119.37344034
_cell_angle_beta   119.11038647
_cell_angle_gamma   90.00440883
_symmetry_Int_Tables_number   1
_chemical_formula_structural   PHN2
_chemical_formula_sum   'P2 H2 N4'
_cell_volume   81.44254252
_cell_formula_units_Z   2
loop_
 _symmetry_equiv_pos_site_id
 _symmetry_equiv_pos_as_xyz
  1  'x, y, z'
loop_
 _atom_site_type_symbol
 _atom_site_label
 _atom_site_symmetry_multiplicity
 _atom_site_fract_x
 _atom_site_fract_y
 _atom_site_fract_z
 _atom_site_occupancy
  P  P0  1  0.98954947  0.98958488  0.97919777  1
  P  P1  1  0.26057409  0.76029340  0.52078358  1
  H  H2  1  0.48017188  0.37433278  0.24847492  1
  H  H3  1  0.76909116  0.87585690  0.25160466  1
  N  N4  1  0.12644270  0.73436965  0.75149051  1
  N  N5  1  0.26546889  0.37484062  0.24919917  1
  N  N6  1  0.62496085  0.01511712  0.74847900  1
  N  N7  1  0.98374096  0.87560365  0.25077137  1
