# generated using pymatgen
data_KPH3O4F
_symmetry_space_group_name_H-M   'P 1'
_cell_length_a   6.73522724
_cell_length_b   7.71740657
_cell_length_c   9.58191977
_cell_angle_alpha   90.00000000
_cell_angle_beta   100.90594350
_cell_angle_gamma   90.00000000
_symmetry_Int_Tables_number   1
_chemical_formula_structural   KPH3O4F
_chemical_formula_sum   'K4 P4 H12 O16 F4'
_cell_volume   489.05838983
_cell_formula_units_Z   4
loop_
 _symmetry_equiv_pos_site_id
 _symmetry_equiv_pos_as_xyz
  1  'x, y, z'
loop_
 _atom_site_type_symbol
 _atom_site_label
 _atom_site_symmetry_multiplicity
 _atom_site_fract_x
 _atom_site_fract_y
 _atom_site_fract_z
 _atom_site_occupancy
  H  H0  1  0.88760179  0.97325097  0.76024925  1
  H  H1  1  0.11239821  0.47325097  0.73975075  1
  H  H2  1  0.11239821  0.02674903  0.23975075  1
  H  H3  1  0.88760179  0.52674903  0.26024925  1
  H  H4  1  0.40698922  0.02099159  0.83455674  1
  H  H5  1  0.59301078  0.52099159  0.66544326  1
  H  H6  1  0.59301078  0.97900841  0.16544326  1
  H  H7  1  0.40698922  0.47900841  0.33455674  1
  H  H8  1  0.37013201  0.18785295  0.46127208  1
  H  H9  1  0.62986799  0.68785295  0.03872792  1
  H  H10  1  0.62986799  0.81214705  0.53872792  1
  H  H11  1  0.37013201  0.31214705  0.96127208  1
  O  O12  1  0.64297698  0.64532761  0.94002511  1
  O  O13  1  0.41172143  0.61155828  0.34759652  1
  O  O14  1  0.58827857  0.38844172  0.65240348  1
  O  O15  1  0.41172143  0.88844172  0.84759652  1
  O  O16  1  0.59300753  0.78165438  0.18058576  1
  O  O17  1  0.40699247  0.28165438  0.31941424  1
  O  O18  1  0.40699247  0.21834562  0.81941424  1
  O  O19  1  0.59300753  0.71834562  0.68058576  1
  O  O20  1  0.79373824  0.57275667  0.36316193  1
  O  O21  1  0.20626176  0.07275667  0.13683807  1
  O  O22  1  0.20626176  0.42724333  0.63683807  1
  O  O23  1  0.79373824  0.92724333  0.86316193  1
  O  O24  1  0.35702302  0.35467239  0.05997489  1
  O  O25  1  0.64297698  0.85467239  0.44002511  1
  O  O26  1  0.58827857  0.11155828  0.15240348  1
  O  O27  1  0.35702302  0.14532761  0.55997489  1
  F  F28  1  0.96490032  0.01788280  0.68024091  1
  F  F29  1  0.03509968  0.51788280  0.81975909  1
  F  F30  1  0.03509968  0.98211720  0.31975909  1
  F  F31  1  0.96490032  0.48211720  0.18024091  1
  P  P32  1  0.61730485  0.79937996  0.82842552  1
  P  P33  1  0.38269515  0.29937996  0.67157448  1
  P  P34  1  0.38269515  0.20062004  0.17157448  1
  P  P35  1  0.61730485  0.70062004  0.32842552  1
  K  K36  1  0.84092777  0.27671809  0.95710049  1
  K  K37  1  0.15907223  0.77671809  0.54289951  1
  K  K38  1  0.15907223  0.72328191  0.04289951  1
  K  K39  1  0.84092777  0.22328191  0.45710049  1
