# generated using pymatgen
data_CsBr3
_symmetry_space_group_name_H-M   'P 1'
_cell_length_a   6.87108377
_cell_length_b   9.86817075
_cell_length_c   10.27733698
_cell_angle_alpha   90.00000000
_cell_angle_beta   90.00000000
_cell_angle_gamma   90.00000000
_symmetry_Int_Tables_number   1
_chemical_formula_structural   CsBr3
_chemical_formula_sum   'Cs4 Br12'
_cell_volume   696.85512046
_cell_formula_units_Z   4
loop_
 _symmetry_equiv_pos_site_id
 _symmetry_equiv_pos_as_xyz
  1  'x, y, z'
loop_
 _atom_site_type_symbol
 _atom_site_label
 _atom_site_symmetry_multiplicity
 _atom_site_fract_x
 _atom_site_fract_y
 _atom_site_fract_z
 _atom_site_occupancy
  Br  Br0  1  0.25000000  0.76587345  0.94311684  1
  Br  Br1  1  0.75000000  0.23412655  0.05688316  1
  Br  Br2  1  0.75000000  0.26587345  0.55688316  1
  Br  Br3  1  0.25000000  0.73412655  0.44311684  1
  Br  Br4  1  0.25000000  0.38773219  0.82180628  1
  Br  Br5  1  0.75000000  0.61226781  0.17819372  1
  Br  Br6  1  0.75000000  0.88773219  0.67819372  1
  Br  Br7  1  0.25000000  0.11226781  0.32180628  1
  Br  Br8  1  0.25000000  0.56397448  0.62655386  1
  Br  Br9  1  0.75000000  0.43602552  0.37344614  1
  Br  Br10  1  0.75000000  0.06397448  0.87344614  1
  Br  Br11  1  0.25000000  0.93602552  0.12655386  1
  Cs  Cs12  1  0.25000000  0.04240125  0.68500410  1
  Cs  Cs13  1  0.75000000  0.95759875  0.31499590  1
  Cs  Cs14  1  0.75000000  0.54240125  0.81499590  1
  Cs  Cs15  1  0.25000000  0.45759875  0.18500410  1
