# generated using pymatgen
data_CuH6SO7
_symmetry_space_group_name_H-M   'P 1'
_cell_length_a   7.43485398
_cell_length_b   7.43485398
_cell_length_c   7.22833272
_cell_angle_alpha   86.42730945
_cell_angle_beta   93.57269055
_cell_angle_gamma   43.85069766
_symmetry_Int_Tables_number   1
_chemical_formula_structural   CuH6SO7
_chemical_formula_sum   'Cu2 H12 S2 O14'
_cell_volume   272.92655170
_cell_formula_units_Z   2
loop_
 _symmetry_equiv_pos_site_id
 _symmetry_equiv_pos_as_xyz
  1  'x, y, z'
loop_
 _atom_site_type_symbol
 _atom_site_label
 _atom_site_symmetry_multiplicity
 _atom_site_fract_x
 _atom_site_fract_y
 _atom_site_fract_z
 _atom_site_occupancy
  Cu  Cu0  1  0.12968005  0.14828169  0.99883305  1
  Cu  Cu1  1  0.85171831  0.87031995  0.49883305  1
  H  H2  1  0.02050560  0.16626340  0.64047961  1
  H  H3  1  0.83373660  0.97949440  0.14047961  1
  H  H4  1  0.84632003  0.46454827  0.67637247  1
  H  H5  1  0.53545173  0.15367997  0.17637247  1
  H  H6  1  0.56879700  0.26016477  0.70430897  1
  H  H7  1  0.73983523  0.43120300  0.20430897  1
  H  H8  1  0.56790115  0.35232275  0.49913732  1
  H  H9  1  0.64767725  0.43209885  0.99913732  1
  H  H10  1  0.61058917  0.76487739  0.98519112  1
  H  H11  1  0.23512261  0.38941083  0.48519112  1
  H  H12  1  0.47773943  0.91649988  0.77628457  1
  H  H13  1  0.08350012  0.52226057  0.27628457  1
  S  S14  1  0.16439230  0.62211160  0.92295718  1
  S  S15  1  0.37788840  0.83560770  0.42295718  1
  O  O16  1  0.99609268  0.67315225  0.75412873  1
  O  O17  1  0.32684775  0.00390732  0.25412873  1
  O  O18  1  0.54334859  0.81602398  0.57111785  1
  O  O19  1  0.18397602  0.45665141  0.07111785  1
  O  O20  1  0.43085369  0.47245144  0.87678402  1
  O  O21  1  0.52754856  0.56914631  0.37678402  1
  O  O22  1  0.12863121  0.95772552  0.48643510  1
  O  O23  1  0.04227448  0.87136879  0.98643510  1
  O  O24  1  0.94300347  0.28594532  0.73813737  1
  O  O25  1  0.71405468  0.05699653  0.23813737  1
  O  O26  1  0.57693961  0.22447731  0.57250630  1
  O  O27  1  0.77552269  0.42306039  0.07250630  1
  O  O28  1  0.47018641  0.94333484  0.91162635  1
  O  O29  1  0.05666516  0.52981359  0.41162635  1
