# generated using pymatgen
data_Te2Br
_symmetry_space_group_name_H-M   'P 1'
_cell_length_a   4.04909052
_cell_length_b   13.39410023
_cell_length_c   16.70241293
_cell_angle_alpha   90.00000000
_cell_angle_beta   90.00000000
_cell_angle_gamma   90.00000000
_symmetry_Int_Tables_number   1
_chemical_formula_structural   Te2Br
_chemical_formula_sum   'Te16 Br8'
_cell_volume   905.83739789
_cell_formula_units_Z   8
loop_
 _symmetry_equiv_pos_site_id
 _symmetry_equiv_pos_as_xyz
  1  'x, y, z'
loop_
 _atom_site_type_symbol
 _atom_site_label
 _atom_site_symmetry_multiplicity
 _atom_site_fract_x
 _atom_site_fract_y
 _atom_site_fract_z
 _atom_site_occupancy
  Br  Br0  1  0.75000000  0.14410012  0.15626959  1
  Br  Br1  1  0.25000000  0.85589988  0.84373041  1
  Br  Br2  1  0.25000000  0.64410012  0.34373041  1
  Br  Br3  1  0.75000000  0.35589988  0.65626959  1
  Br  Br4  1  0.75000000  0.11147144  0.43918497  1
  Br  Br5  1  0.25000000  0.88852856  0.56081503  1
  Br  Br6  1  0.25000000  0.61147144  0.06081503  1
  Br  Br7  1  0.75000000  0.38852856  0.93918497  1
  Te  Te8  1  0.75000000  0.05279105  0.72495654  1
  Te  Te9  1  0.25000000  0.94720895  0.27504346  1
  Te  Te10  1  0.25000000  0.55279105  0.77504346  1
  Te  Te11  1  0.75000000  0.44720895  0.22495654  1
  Te  Te12  1  0.25000000  0.19770637  0.68932938  1
  Te  Te13  1  0.75000000  0.80229363  0.31067062  1
  Te  Te14  1  0.75000000  0.69770637  0.81067062  1
  Te  Te15  1  0.25000000  0.30229363  0.18932938  1
  Te  Te16  1  0.75000000  0.41863183  0.40324420  1
  Te  Te17  1  0.25000000  0.58136817  0.59675580  1
  Te  Te18  1  0.25000000  0.91863183  0.09675580  1
  Te  Te19  1  0.75000000  0.08136817  0.90324420  1
  Te  Te20  1  0.25000000  0.26628518  0.41815745  1
  Te  Te21  1  0.75000000  0.73371482  0.58184255  1
  Te  Te22  1  0.75000000  0.76628518  0.08184255  1
  Te  Te23  1  0.25000000  0.23371482  0.91815745  1
