# generated using pymatgen
data_Na10CaSn12
_symmetry_space_group_name_H-M   'P 1'
_cell_length_a   9.79127619
_cell_length_b   9.79127619
_cell_length_c   9.79127619
_cell_angle_alpha   109.47122064
_cell_angle_beta   109.47122064
_cell_angle_gamma   109.47122064
_symmetry_Int_Tables_number   1
_chemical_formula_structural   Na10CaSn12
_chemical_formula_sum   'Na10 Ca1 Sn12'
_cell_volume   722.59676470
_cell_formula_units_Z   1
loop_
 _symmetry_equiv_pos_site_id
 _symmetry_equiv_pos_as_xyz
  1  'x, y, z'
loop_
 _atom_site_type_symbol
 _atom_site_label
 _atom_site_symmetry_multiplicity
 _atom_site_fract_x
 _atom_site_fract_y
 _atom_site_fract_z
 _atom_site_occupancy
  Na  Na0  1  0.50000000  0.25000000  0.75000000  1
  Na  Na1  1  0.00000000  0.00000000  0.38652864  1
  Na  Na2  1  0.00000000  0.38652864  0.00000000  1
  Na  Na3  1  0.38652864  0.00000000  0.00000000  1
  Na  Na4  1  0.61347136  0.61347136  0.61347136  1
  Na  Na5  1  0.50000000  0.75000000  0.25000000  1
  Na  Na6  1  0.25000000  0.75000000  0.50000000  1
  Na  Na7  1  0.75000000  0.25000000  0.50000000  1
  Na  Na8  1  0.25000000  0.50000000  0.75000000  1
  Na  Na9  1  0.75000000  0.50000000  0.25000000  1
  Ca  Ca10  1  0.00000000  0.00000000  0.00000000  1
  Sn  Sn11  1  0.18818834  0.18818834  0.81748967  1
  Sn  Sn12  1  0.37069867  0.18251033  0.37069867  1
  Sn  Sn13  1  0.18251033  0.37069867  0.37069867  1
  Sn  Sn14  1  0.00000000  0.62930133  0.81181166  1
  Sn  Sn15  1  0.62930133  0.00000000  0.81181166  1
  Sn  Sn16  1  0.81181166  0.00000000  0.62930133  1
  Sn  Sn17  1  0.18818834  0.81748967  0.18818834  1
  Sn  Sn18  1  0.81748967  0.18818834  0.18818834  1
  Sn  Sn19  1  0.00000000  0.81181166  0.62930133  1
  Sn  Sn20  1  0.81181166  0.62930133  0.00000000  1
  Sn  Sn21  1  0.62930133  0.81181166  0.00000000  1
  Sn  Sn22  1  0.37069867  0.37069867  0.18251033  1
