# generated using pymatgen
data_SrCaSn
_symmetry_space_group_name_H-M   'P 1'
_cell_length_a   5.18789476
_cell_length_b   8.44246029
_cell_length_c   9.69276838
_cell_angle_alpha   90.00000000
_cell_angle_beta   90.00000000
_cell_angle_gamma   90.00000000
_symmetry_Int_Tables_number   1
_chemical_formula_structural   SrCaSn
_chemical_formula_sum   'Sr4 Ca4 Sn4'
_cell_volume   424.52964155
_cell_formula_units_Z   4
loop_
 _symmetry_equiv_pos_site_id
 _symmetry_equiv_pos_as_xyz
  1  'x, y, z'
loop_
 _atom_site_type_symbol
 _atom_site_label
 _atom_site_symmetry_multiplicity
 _atom_site_fract_x
 _atom_site_fract_y
 _atom_site_fract_z
 _atom_site_occupancy
  Ca  Ca0  1  0.75000000  0.85027715  0.92983762  1
  Ca  Ca1  1  0.25000000  0.14972285  0.07016238  1
  Ca  Ca2  1  0.75000000  0.35027715  0.57016238  1
  Ca  Ca3  1  0.25000000  0.64972285  0.42983762  1
  Sr  Sr4  1  0.75000000  0.97848438  0.31793942  1
  Sr  Sr5  1  0.25000000  0.02151562  0.68206058  1
  Sr  Sr6  1  0.75000000  0.47848438  0.18206058  1
  Sr  Sr7  1  0.25000000  0.52151562  0.81793942  1
  Sn  Sn8  1  0.75000000  0.73699849  0.60997031  1
  Sn  Sn9  1  0.25000000  0.26300151  0.39002969  1
  Sn  Sn10  1  0.75000000  0.23699849  0.89002969  1
  Sn  Sn11  1  0.25000000  0.76300151  0.10997031  1
