# generated using pymatgen
data_Sr5(GeN3)2
_symmetry_space_group_name_H-M   'P 1'
_cell_length_a   6.19298700
_cell_length_b   6.19298665
_cell_length_c   13.67404228
_cell_angle_alpha   81.42195526
_cell_angle_beta   81.42195578
_cell_angle_gamma   64.21434350
_symmetry_Int_Tables_number   1
_chemical_formula_structural   Sr5(GeN3)2
_chemical_formula_sum   'Sr10 Ge4 N12'
_cell_volume   464.84309695
_cell_formula_units_Z   2
loop_
 _symmetry_equiv_pos_site_id
 _symmetry_equiv_pos_as_xyz
  1  'x, y, z'
loop_
 _atom_site_type_symbol
 _atom_site_label
 _atom_site_symmetry_multiplicity
 _atom_site_fract_x
 _atom_site_fract_y
 _atom_site_fract_z
 _atom_site_occupancy
  Sr  Sr0  1  0.06738724  0.24231440  0.28473738  1
  Sr  Sr1  1  0.67621887  0.20334314  0.49742544  1
  Sr  Sr2  1  0.24231440  0.06738724  0.78473738  1
  Sr  Sr3  1  0.38041077  0.61958923  0.25000000  1
  Sr  Sr4  1  0.20334314  0.67621887  0.99742544  1
  Sr  Sr5  1  0.61958923  0.38041077  0.75000000  1
  Sr  Sr6  1  0.32378113  0.79665686  0.50257456  1
  Sr  Sr7  1  0.79665686  0.32378113  0.00257456  1
  Sr  Sr8  1  0.75768560  0.93261276  0.21526262  1
  Sr  Sr9  1  0.93261276  0.75768560  0.71526262  1
  Ge  Ge10  1  0.34876956  0.09693602  0.07656690  1
  Ge  Ge11  1  0.90306398  0.65123044  0.42343310  1
  Ge  Ge12  1  0.09693602  0.34876956  0.57656690  1
  Ge  Ge13  1  0.65123044  0.90306398  0.92343310  1
  N  N14  1  0.64832678  0.79012756  0.06338546  1
  N  N15  1  0.30887484  0.39425737  0.64861305  1
  N  N16  1  0.79012756  0.64832678  0.56338546  1
  N  N17  1  0.90367167  0.98400351  0.87234022  1
  N  N18  1  0.20987244  0.35167322  0.43661454  1
  N  N19  1  0.35167322  0.20987244  0.93661454  1
  N  N20  1  0.09632833  0.01599649  0.12765978  1
  N  N21  1  0.01599649  0.09632833  0.62765978  1
  N  N22  1  0.69112516  0.60574263  0.35138695  1
  N  N23  1  0.60574263  0.69112516  0.85138695  1
  N  N24  1  0.39425737  0.30887484  0.14861305  1
  N  N25  1  0.98400351  0.90367167  0.37234022  1
