# generated using pymatgen
data_CaFeO2
_symmetry_space_group_name_H-M   'P 1'
_cell_length_a   3.22645914
_cell_length_b   5.66137816
_cell_length_c   5.66137816
_cell_angle_alpha   90.00000000
_cell_angle_beta   90.00000000
_cell_angle_gamma   90.00000000
_symmetry_Int_Tables_number   1
_chemical_formula_structural   CaFeO2
_chemical_formula_sum   'Ca2 Fe2 O4'
_cell_volume   103.41189580
_cell_formula_units_Z   2
loop_
 _symmetry_equiv_pos_site_id
 _symmetry_equiv_pos_as_xyz
  1  'x, y, z'
loop_
 _atom_site_type_symbol
 _atom_site_label
 _atom_site_symmetry_multiplicity
 _atom_site_fract_x
 _atom_site_fract_y
 _atom_site_fract_z
 _atom_site_occupancy
  O  O0  1  0.99825115  0.75153008  0.25153132  1
  O  O1  1  0.00174710  0.25153132  0.24846927  1
  O  O2  1  0.00174710  0.74846986  0.75153008  1
  O  O3  1  0.99825115  0.24846927  0.74846986  1
  Ca  Ca4  1  0.50105153  0.50000059  0.00000000  1
  Ca  Ca5  1  0.49894671  0.00000000  0.50000059  1
  Fe  Fe6  1  0.00000000  0.00000000  0.00000000  1
  Fe  Fe7  1  0.00000000  0.50000059  0.50000059  1
