# generated using pymatgen
data_Li3InN2
_symmetry_space_group_name_H-M   'P 1'
_cell_length_a   8.84697662
_cell_length_b   10.21560861
_cell_length_c   10.21560877
_cell_angle_alpha   89.99999705
_cell_angle_beta   125.26438698
_cell_angle_gamma   54.73561240
_symmetry_Int_Tables_number   1
_chemical_formula_structural   Li3InN2
_chemical_formula_sum   'Li24 In8 N16'
_cell_volume   533.04365605
_cell_formula_units_Z   8
loop_
 _symmetry_equiv_pos_site_id
 _symmetry_equiv_pos_as_xyz
  1  'x, y, z'
loop_
 _atom_site_type_symbol
 _atom_site_label
 _atom_site_symmetry_multiplicity
 _atom_site_fract_x
 _atom_site_fract_y
 _atom_site_fract_z
 _atom_site_occupancy
  Li  Li0  1  0.22959364  0.03415140  0.00383807  1
  Li  Li1  1  0.77040636  0.76374504  0.49616193  1
  Li  Li2  1  0.77040636  0.46584860  0.77424343  1
  Li  Li3  1  0.22959364  0.73625496  0.72575657  1
  Li  Li4  1  0.22191850  0.77424343  0.25990797  1
  Li  Li5  1  0.77808150  0.72575657  0.03798847  1
  Li  Li6  1  0.22191850  0.00383807  0.46201153  1
  Li  Li7  1  0.77808150  0.49616193  0.24009203  1
  Li  Li8  1  0.70210355  0.03798847  0.73625496  1
  Li  Li9  1  0.70210355  0.25990797  0.46584860  1
  Li  Li10  1  0.29789645  0.24009203  0.76374504  1
  Li  Li11  1  0.29789645  0.46201153  0.03415140  1
  Li  Li12  1  0.77040636  0.96584860  0.99616193  1
  Li  Li13  1  0.22959364  0.23625496  0.50383807  1
  Li  Li14  1  0.22959364  0.53415140  0.22575657  1
  Li  Li15  1  0.77040636  0.26374504  0.27424343  1
  Li  Li16  1  0.77808150  0.22575657  0.74009203  1
  Li  Li17  1  0.22191850  0.27424343  0.96201153  1
  Li  Li18  1  0.77808150  0.99616193  0.53798847  1
  Li  Li19  1  0.22191850  0.50383807  0.75990797  1
  Li  Li20  1  0.29789645  0.96201153  0.26374504  1
  Li  Li21  1  0.29789645  0.74009203  0.53415140  1
  Li  Li22  1  0.70210355  0.75990797  0.23625496  1
  Li  Li23  1  0.70210355  0.53798847  0.96584860  1
  In  In24  1  0.24794804  0.00000000  0.74794804  1
  In  In25  1  0.75205196  0.74794804  0.75205196  1
  In  In26  1  0.75205196  0.50000000  0.50000000  1
  In  In27  1  0.24794804  0.75205196  1.00000000  1
  In  In28  1  0.75205196  1.00000000  0.25205196  1
  In  In29  1  0.24794804  0.25205196  0.24794804  1
  In  In30  1  0.24794804  0.50000000  0.50000000  1
  In  In31  1  0.75205196  0.24794804  0.00000000  1
  N  N32  1  0.00000000  0.00000000  0.50000000  1
  N  N33  1  0.00000000  0.50000000  0.00000000  1
  N  N34  1  0.00000000  0.50000000  0.50000000  1
  N  N35  1  0.00000000  0.00000000  0.00000000  1
  N  N36  1  0.50000000  0.99914470  0.75000000  1
  N  N37  1  0.50000000  0.50085530  0.25000000  1
  N  N38  1  0.00000000  0.25000000  0.74914470  1
  N  N39  1  0.00000000  0.75000000  0.75085530  1
  N  N40  1  0.50171060  0.74914470  0.50085530  1
  N  N41  1  0.49828940  0.75085530  0.99914470  1
  N  N42  1  0.50000000  0.00085530  0.25000000  1
  N  N43  1  0.50000000  0.49914470  0.75000000  1
  N  N44  1  0.00000000  0.75000000  0.25085530  1
  N  N45  1  0.00000000  0.25000000  0.24914470  1
  N  N46  1  0.49828940  0.25085530  0.49914470  1
  N  N47  1  0.50171060  0.24914470  0.00085530  1
