# generated using pymatgen
data_Tl4O3
_symmetry_space_group_name_H-M   'P 1'
_cell_length_a   3.55955895
_cell_length_b   7.94598296
_cell_length_c   11.34091255
_cell_angle_alpha   109.53234801
_cell_angle_beta   90.00000000
_cell_angle_gamma   90.00000000
_symmetry_Int_Tables_number   1
_chemical_formula_structural   Tl4O3
_chemical_formula_sum   'Tl8 O6'
_cell_volume   302.30927162
_cell_formula_units_Z   2
loop_
 _symmetry_equiv_pos_site_id
 _symmetry_equiv_pos_as_xyz
  1  'x, y, z'
loop_
 _atom_site_type_symbol
 _atom_site_label
 _atom_site_symmetry_multiplicity
 _atom_site_fract_x
 _atom_site_fract_y
 _atom_site_fract_z
 _atom_site_occupancy
  O  O0  1  0.75000000  0.23845017  0.60023906  1
  O  O1  1  0.25000000  0.76154983  0.39976094  1
  O  O2  1  0.75000000  0.47500115  0.18097213  1
  O  O3  1  0.25000000  0.52499885  0.81902787  1
  O  O4  1  0.75000000  0.63807266  0.60760489  1
  O  O5  1  0.25000000  0.36192734  0.39239511  1
  Tl  Tl6  1  0.25000000  0.43100105  0.60762744  1
  Tl  Tl7  1  0.75000000  0.56899895  0.39237256  1
  Tl  Tl8  1  0.75000000  0.08399743  0.37551872  1
  Tl  Tl9  1  0.25000000  0.91600257  0.62448128  1
  Tl  Tl10  1  0.75000000  0.30498564  0.83947783  1
  Tl  Tl11  1  0.25000000  0.69501436  0.16052217  1
  Tl  Tl12  1  0.75000000  0.76517643  0.86313582  1
  Tl  Tl13  1  0.25000000  0.23482357  0.13686418  1
