# generated using pymatgen
data_Na6ZnS4
_symmetry_space_group_name_H-M   'P 1'
_cell_length_a   8.98132724
_cell_length_b   8.98132724
_cell_length_c   6.94182904
_cell_angle_alpha   90.00000000
_cell_angle_beta   90.00000000
_cell_angle_gamma   120.00000000
_symmetry_Int_Tables_number   1
_chemical_formula_structural   Na6ZnS4
_chemical_formula_sum   'Na12 Zn2 S8'
_cell_volume   484.93729599
_cell_formula_units_Z   2
loop_
 _symmetry_equiv_pos_site_id
 _symmetry_equiv_pos_as_xyz
  1  'x, y, z'
loop_
 _atom_site_type_symbol
 _atom_site_label
 _atom_site_symmetry_multiplicity
 _atom_site_fract_x
 _atom_site_fract_y
 _atom_site_fract_z
 _atom_site_occupancy
  Na  Na0  1  0.14793317  0.85206683  0.53804621  1
  Na  Na1  1  0.29586633  0.14793317  0.03804621  1
  Na  Na2  1  0.85206683  0.70413367  0.03804621  1
  Na  Na3  1  0.14793317  0.29586633  0.53804621  1
  Na  Na4  1  0.70413367  0.85206683  0.53804621  1
  Na  Na5  1  0.85206683  0.14793317  0.03804621  1
  Na  Na6  1  0.53127826  0.46872174  0.36588199  1
  Na  Na7  1  0.06255652  0.53127826  0.86588199  1
  Na  Na8  1  0.46872174  0.93744348  0.86588199  1
  Na  Na9  1  0.53127826  0.06255652  0.36588199  1
  Na  Na10  1  0.93744348  0.46872174  0.36588199  1
  Na  Na11  1  0.46872174  0.53127826  0.86588199  1
  S  S12  1  0.81224727  0.18775273  0.64189546  1
  S  S13  1  0.62449455  0.81224727  0.14189546  1
  S  S14  1  0.33333333  0.66666667  0.59338794  1
  S  S15  1  0.66666667  0.33333333  0.09338794  1
  S  S16  1  0.18775273  0.81224727  0.14189546  1
  S  S17  1  0.37550545  0.18775273  0.64189546  1
  S  S18  1  0.81224727  0.62449455  0.64189546  1
  S  S19  1  0.18775273  0.37550545  0.14189546  1
  Zn  Zn20  1  0.66666667  0.33333333  0.74864107  1
  Zn  Zn21  1  0.33333333  0.66666667  0.24864107  1
