# generated using pymatgen
data_Al4(B2O5)3
_symmetry_space_group_name_H-M   'P 1'
_cell_length_a   7.03441396
_cell_length_b   7.03441396
_cell_length_c   7.03441396
_cell_angle_alpha   110.88497186
_cell_angle_beta   110.88497183
_cell_angle_gamma   110.88497185
_symmetry_Int_Tables_number   1
_chemical_formula_structural   Al4(B2O5)3
_chemical_formula_sum   'Al4 B6 O15'
_cell_volume   252.96062111
_cell_formula_units_Z   1
loop_
 _symmetry_equiv_pos_site_id
 _symmetry_equiv_pos_as_xyz
  1  'x, y, z'
loop_
 _atom_site_type_symbol
 _atom_site_label
 _atom_site_symmetry_multiplicity
 _atom_site_fract_x
 _atom_site_fract_y
 _atom_site_fract_z
 _atom_site_occupancy
  B  B0  1  0.72744499  0.49989028  0.82611898  1
  B  B1  1  0.49989028  0.82611898  0.72744499  1
  B  B2  1  0.82611898  0.72744499  0.49989028  1
  B  B3  1  0.47575857  0.14222422  0.40098253  1
  B  B4  1  0.14222422  0.40098253  0.47575857  1
  B  B5  1  0.40098253  0.47575857  0.14222422  1
  O  O6  1  0.47595654  0.89523422  0.92371969  1
  O  O7  1  0.60652706  0.50124546  0.30993515  1
  O  O8  1  0.30993515  0.60652706  0.50124546  1
  O  O9  1  0.50124546  0.30993515  0.60652706  1
  O  O10  1  0.92371969  0.47595654  0.89523422  1
  O  O11  1  0.71992594  0.97205392  0.76086974  1
  O  O12  1  0.76086974  0.71992594  0.97205392  1
  O  O13  1  0.17485161  0.25722944  0.98450538  1
  O  O14  1  0.98450538  0.17485161  0.25722944  1
  O  O15  1  0.25722944  0.98450538  0.17485161  1
  O  O16  1  0.66602131  0.12042448  0.42260876  1
  O  O17  1  0.42260876  0.66602131  0.12042448  1
  O  O18  1  0.12042448  0.42260876  0.66602131  1
  O  O19  1  0.97205392  0.76086974  0.71992594  1
  O  O20  1  0.89523422  0.92371969  0.47595654  1
  Al  Al21  1  0.19690344  0.70803433  0.91467559  1
  Al  Al22  1  0.70803433  0.91467559  0.19690344  1
  Al  Al23  1  0.91467559  0.19690344  0.70803433  1
  Al  Al24  1  0.99855835  0.99855835  0.99855835  1
