# generated using pymatgen
data_H3ClO5
_symmetry_space_group_name_H-M   'P 1'
_cell_length_a   5.44812830
_cell_length_b   7.98982699
_cell_length_c   9.54638421
_cell_angle_alpha   90.00000000
_cell_angle_beta   90.00000000
_cell_angle_gamma   97.19927244
_symmetry_Int_Tables_number   1
_chemical_formula_structural   H3ClO5
_chemical_formula_sum   'H12 Cl4 O20'
_cell_volume   412.27423356
_cell_formula_units_Z   4
loop_
 _symmetry_equiv_pos_site_id
 _symmetry_equiv_pos_as_xyz
  1  'x, y, z'
loop_
 _atom_site_type_symbol
 _atom_site_label
 _atom_site_symmetry_multiplicity
 _atom_site_fract_x
 _atom_site_fract_y
 _atom_site_fract_z
 _atom_site_occupancy
  H  H0  1  0.37165353  0.76263999  0.72826212  1
  H  H1  1  0.12834647  0.73736001  0.22826212  1
  H  H2  1  0.62834647  0.23736001  0.27173788  1
  H  H3  1  0.87165353  0.26263999  0.77173788  1
  H  H4  1  0.59288106  0.18250446  0.10355554  1
  H  H5  1  0.90711894  0.31749554  0.60355554  1
  H  H6  1  0.12272663  0.76851596  0.83380326  1
  H  H7  1  0.37727337  0.73148404  0.33380326  1
  H  H8  1  0.87727337  0.23148404  0.16619674  1
  H  H9  1  0.62272663  0.26851596  0.66619674  1
  H  H10  1  0.40711894  0.81749554  0.89644446  1
  H  H11  1  0.09288106  0.68250446  0.39644446  1
  O  O12  1  0.84872072  0.69607922  0.88314691  1
  O  O13  1  0.42724794  0.18532072  0.96292953  1
  O  O14  1  0.92724794  0.68532072  0.53707047  1
  O  O15  1  0.07275206  0.31467928  0.46292953  1
  O  O16  1  0.49900126  0.32105579  0.40041998  1
  O  O17  1  0.00099874  0.17894421  0.90041998  1
  O  O18  1  0.50099874  0.67894421  0.59958002  1
  O  O19  1  0.99900126  0.82105579  0.09958002  1
  O  O20  1  0.79806587  0.32076430  0.68966607  1
  O  O21  1  0.70193413  0.17923570  0.18966607  1
  O  O22  1  0.20193413  0.67923570  0.31033393  1
  O  O23  1  0.29806587  0.82076430  0.81033393  1
  O  O24  1  0.15127928  0.30392078  0.11685309  1
  O  O25  1  0.34872072  0.19607922  0.61685309  1
  O  O26  1  0.73167416  0.55966226  0.10130821  1
  O  O27  1  0.76832584  0.94033774  0.60130821  1
  O  O28  1  0.26832584  0.44033774  0.89869179  1
  O  O29  1  0.23167416  0.05966226  0.39869179  1
  O  O30  1  0.57275206  0.81467928  0.03707047  1
  O  O31  1  0.65127928  0.80392078  0.38314691  1
  Cl  Cl32  1  0.78709050  0.71930063  0.03166616  1
  Cl  Cl33  1  0.71290950  0.78069937  0.53166616  1
  Cl  Cl34  1  0.21290950  0.28069937  0.96833384  1
  Cl  Cl35  1  0.28709050  0.21930063  0.46833384  1
