# generated using pymatgen
data_Rb2SnO2
_symmetry_space_group_name_H-M   'P 1'
_cell_length_a   5.88714326
_cell_length_b   7.64196088
_cell_length_c   11.43767112
_cell_angle_alpha   90.00000000
_cell_angle_beta   90.00000000
_cell_angle_gamma   90.00000000
_symmetry_Int_Tables_number   1
_chemical_formula_structural   Rb2SnO2
_chemical_formula_sum   'Rb8 Sn4 O8'
_cell_volume   514.57302878
_cell_formula_units_Z   4
loop_
 _symmetry_equiv_pos_site_id
 _symmetry_equiv_pos_as_xyz
  1  'x, y, z'
loop_
 _atom_site_type_symbol
 _atom_site_label
 _atom_site_symmetry_multiplicity
 _atom_site_fract_x
 _atom_site_fract_y
 _atom_site_fract_z
 _atom_site_occupancy
  O  O0  1  0.33767814  0.69469947  0.04764867  1
  O  O1  1  0.49639304  0.58305373  0.43486234  1
  O  O2  1  -0.00360696  0.91694627  0.56513766  1
  O  O3  1  0.16232186  0.30530053  0.54764867  1
  O  O4  1  0.50360696  0.08305373  0.06513766  1
  O  O5  1  0.66232186  0.19469947  0.45235133  1
  O  O6  1  0.83767814  0.80530053  0.95235133  1
  O  O7  1  1.00360696  0.41694627  0.93486234  1
  Rb  Rb8  1  1.00107854  0.64698759  0.74155547  1
  Rb  Rb9  1  0.49892146  0.35301241  0.24155547  1
  Rb  Rb10  1  0.00288265  0.60860297  0.41768593  1
  Rb  Rb11  1  0.49711735  0.39139703  0.91768593  1
  Rb  Rb12  1  0.99711735  0.10860297  0.08231407  1
  Rb  Rb13  1  0.50288265  0.89139703  0.58231407  1
  Rb  Rb14  1  0.50107854  0.85301241  0.25844453  1
  Rb  Rb15  1  -0.00107854  0.14698759  0.75844453  1
  Sn  Sn16  1  0.49561717  0.88937539  0.94339382  1
  Sn  Sn17  1  0.50438283  0.38937539  0.55660618  1
  Sn  Sn18  1  0.00438283  0.11062461  0.44339382  1
  Sn  Sn19  1  0.99561717  0.61062461  0.05660618  1
