# generated using pymatgen
data_Ti3Zn2O8
_symmetry_space_group_name_H-M   'P 1'
_cell_length_a   8.48263376
_cell_length_b   8.48263376
_cell_length_c   8.48263376
_cell_angle_alpha   90.00000000
_cell_angle_beta   90.00000000
_cell_angle_gamma   90.00000000
_symmetry_Int_Tables_number   1
_chemical_formula_structural   Ti3Zn2O8
_chemical_formula_sum   'Ti12 Zn8 O32'
_cell_volume   610.36855269
_cell_formula_units_Z   4
loop_
 _symmetry_equiv_pos_site_id
 _symmetry_equiv_pos_as_xyz
  1  'x, y, z'
loop_
 _atom_site_type_symbol
 _atom_site_label
 _atom_site_symmetry_multiplicity
 _atom_site_fract_x
 _atom_site_fract_y
 _atom_site_fract_z
 _atom_site_occupancy
  O  O0  1  0.10920733  0.14515837  0.85852144  1
  O  O1  1  0.60920733  0.35484163  0.14147856  1
  O  O2  1  0.14515837  0.85852144  0.10920733  1
  O  O3  1  0.85484163  0.35852144  0.39079267  1
  O  O4  1  0.85852144  0.10920733  0.14515837  1
  O  O5  1  0.64147856  0.89079267  0.64515837  1
  O  O6  1  0.35920733  0.60852144  0.60484163  1
  O  O7  1  0.85920733  0.89147856  0.39515837  1
  O  O8  1  0.64079267  0.10852144  0.89515837  1
  O  O9  1  0.89147856  0.39515837  0.85920733  1
  O  O10  1  0.89515837  0.64079267  0.10852144  1
  O  O11  1  0.39515837  0.85920733  0.89147856  1
  O  O12  1  0.60852144  0.60484163  0.35920733  1
  O  O13  1  0.60484163  0.35920733  0.60852144  1
  O  O14  1  0.10852144  0.89515837  0.64079267  1
  O  O15  1  0.39147856  0.10484163  0.14079267  1
  O  O16  1  0.10484163  0.14079267  0.39147856  1
  O  O17  1  0.14147856  0.60920733  0.35484163  1
  O  O18  1  0.35852144  0.39079267  0.85484163  1
  O  O19  1  0.64515837  0.64147856  0.89079267  1
  O  O20  1  0.39134128  0.39134128  0.39134128  1
  O  O21  1  0.14134128  0.35865872  0.64134128  1
  O  O22  1  0.64134128  0.14134128  0.35865872  1
  O  O23  1  0.35865872  0.64134128  0.14134128  1
  O  O24  1  0.10865872  0.60865872  0.89134128  1
  O  O25  1  0.89134128  0.10865872  0.60865872  1
  O  O26  1  0.60865872  0.89134128  0.10865872  1
  O  O27  1  0.85865872  0.85865872  0.85865872  1
  O  O28  1  0.14079267  0.39147856  0.10484163  1
  O  O29  1  0.89079267  0.64515837  0.64147856  1
  O  O30  1  0.39079267  0.85484163  0.35852144  1
  O  O31  1  0.35484163  0.14147856  0.60920733  1
  Ti  Ti32  1  0.62500000  0.13590510  0.11409490  1
  Ti  Ti33  1  0.61409490  0.87500000  0.86409490  1
  Ti  Ti34  1  0.63590510  0.38590510  0.37500000  1
  Ti  Ti35  1  0.36409490  0.88590510  0.12500000  1
  Ti  Ti36  1  0.88590510  0.12500000  0.36409490  1
  Ti  Ti37  1  0.11409490  0.62500000  0.13590510  1
  Ti  Ti38  1  0.38590510  0.37500000  0.63590510  1
  Ti  Ti39  1  0.86409490  0.61409490  0.87500000  1
  Ti  Ti40  1  0.13590510  0.11409490  0.62500000  1
  Ti  Ti41  1  0.37500000  0.63590510  0.38590510  1
  Ti  Ti42  1  0.87500000  0.86409490  0.61409490  1
  Ti  Ti43  1  0.12500000  0.36409490  0.88590510  1
  Zn  Zn44  1  0.25602844  0.25602844  0.25602844  1
  Zn  Zn45  1  0.00602844  0.49397156  0.50602844  1
  Zn  Zn46  1  0.49397156  0.50602844  0.00602844  1
  Zn  Zn47  1  0.50602844  0.00602844  0.49397156  1
  Zn  Zn48  1  0.75602844  0.24397156  0.74397156  1
  Zn  Zn49  1  0.24397156  0.74397156  0.75602844  1
  Zn  Zn50  1  0.74397156  0.75602844  0.24397156  1
  Zn  Zn51  1  0.99397156  0.99397156  0.99397156  1
