# generated using pymatgen
data_Rb2Na(NO3)3
_symmetry_space_group_name_H-M   'P 1'
_cell_length_a   5.40849530
_cell_length_b   9.19545811
_cell_length_c   9.81518379
_cell_angle_alpha   90.00000000
_cell_angle_beta   90.00000000
_cell_angle_gamma   90.00000000
_symmetry_Int_Tables_number   1
_chemical_formula_structural   Rb2Na(NO3)3
_chemical_formula_sum   'Rb4 Na2 N6 O18'
_cell_volume   488.14434572
_cell_formula_units_Z   2
loop_
 _symmetry_equiv_pos_site_id
 _symmetry_equiv_pos_as_xyz
  1  'x, y, z'
loop_
 _atom_site_type_symbol
 _atom_site_label
 _atom_site_symmetry_multiplicity
 _atom_site_fract_x
 _atom_site_fract_y
 _atom_site_fract_z
 _atom_site_occupancy
  Rb  Rb0  1  0.50000000  0.91884964  0.83282686  1
  Rb  Rb1  1  0.50000000  0.08115036  0.33282686  1
  Rb  Rb2  1  0.50000000  0.62155784  0.16009545  1
  Rb  Rb3  1  0.50000000  0.37844216  0.66009545  1
  Na  Na4  1  -0.00000000  0.30006134  0.11662578  1
  Na  Na5  1  -0.00000000  0.69993866  0.61662578  1
  N  N6  1  -0.00000000  0.94787605  0.12781970  1
  N  N7  1  -0.00000000  0.05212395  0.62781970  1
  N  N8  1  -0.00000000  0.58727172  0.91512419  1
  N  N9  1  -0.00000000  0.41272828  0.41512419  1
  N  N10  1  0.50000000  0.74850316  0.48314061  1
  N  N11  1  0.50000000  0.25149684  0.98314061  1
  O  O12  1  -0.00000000  0.06059827  0.20473268  1
  O  O13  1  -0.00000000  0.93940173  0.70473268  1
  O  O14  1  0.79643524  0.89352123  0.09106986  1
  O  O15  1  0.20356476  0.89352123  0.09106986  1
  O  O16  1  0.20356476  0.10647877  0.59106986  1
  O  O17  1  0.79643524  0.10647877  0.59106986  1
  O  O18  1  -0.00000000  0.54272919  0.03802786  1
  O  O19  1  -0.00000000  0.45727081  0.53802786  1
  O  O20  1  0.20290413  0.60978343  0.85419050  1
  O  O21  1  0.79709587  0.60978343  0.85419050  1
  O  O22  1  0.79709587  0.39021657  0.35419050  1
  O  O23  1  0.20290413  0.39021657  0.35419050  1
  O  O24  1  0.50000000  0.70169997  0.60532852  1
  O  O25  1  0.50000000  0.29830003  0.10532852  1
  O  O26  1  0.70376940  0.77170294  0.42296882  1
  O  O27  1  0.29623060  0.77170294  0.42296882  1
  O  O28  1  0.29623060  0.22829706  0.92296882  1
  O  O29  1  0.70376940  0.22829706  0.92296882  1
