# generated using pymatgen
data_Si3N4
_symmetry_space_group_name_H-M   'P 1'
_cell_length_a   7.80918684
_cell_length_b   7.80918684
_cell_length_c   5.65995054
_cell_angle_alpha   90.00000000
_cell_angle_beta   90.00000000
_cell_angle_gamma   119.99999999
_symmetry_Int_Tables_number   1
_chemical_formula_structural   Si3N4
_chemical_formula_sum   'Si12 N16'
_cell_volume   298.91994625
_cell_formula_units_Z   4
loop_
 _symmetry_equiv_pos_site_id
 _symmetry_equiv_pos_as_xyz
  1  'x, y, z'
loop_
 _atom_site_type_symbol
 _atom_site_label
 _atom_site_symmetry_multiplicity
 _atom_site_fract_x
 _atom_site_fract_y
 _atom_site_fract_z
 _atom_site_occupancy
  N  N0  1  0.61004453  0.95456374  0.43356087  1
  N  N1  1  0.04543626  0.65548079  0.43356087  1
  N  N2  1  0.34451921  0.38995547  0.43356087  1
  N  N3  1  0.95456374  0.61004453  0.93356087  1
  N  N4  1  0.65548079  0.04543626  0.93356087  1
  N  N5  1  0.38995547  0.34451921  0.93356087  1
  N  N6  1  0.31886097  0.00434214  0.69861829  1
  N  N7  1  0.99565786  0.31451883  0.69861829  1
  N  N8  1  0.68548117  0.68113903  0.69861829  1
  N  N9  1  0.00434214  0.31886097  0.19861829  1
  N  N10  1  0.31451883  0.99565786  0.19861829  1
  N  N11  1  0.68113903  0.68548117  0.19861829  1
  N  N12  1  0.66666667  0.33333333  0.60523017  1
  N  N13  1  0.33333333  0.66666667  0.10523017  1
  N  N14  1  0.00000000  0.00000000  0.45325848  1
  N  N15  1  0.00000000  0.00000000  0.95325848  1
  Si  Si16  1  0.51207696  0.42964882  0.66080428  1
  Si  Si17  1  0.57035118  0.08242814  0.66080428  1
  Si  Si18  1  0.91757186  0.48792304  0.66080428  1
  Si  Si19  1  0.42964882  0.51207696  0.16080428  1
  Si  Si20  1  0.08242814  0.57035118  0.16080428  1
  Si  Si21  1  0.48792304  0.91757186  0.16080428  1
  Si  Si22  1  0.16729453  0.91386140  0.45255369  1
  Si  Si23  1  0.08613860  0.25343312  0.45255369  1
  Si  Si24  1  0.74656688  0.83270547  0.45255369  1
  Si  Si25  1  0.91386140  0.16729453  0.95255369  1
  Si  Si26  1  0.25343312  0.08613860  0.95255369  1
  Si  Si27  1  0.83270547  0.74656688  0.95255369  1
