# generated using pymatgen
data_Na4Al3Si3IO12
_symmetry_space_group_name_H-M   'P 1'
_cell_length_a   9.11413667
_cell_length_b   9.11413667
_cell_length_c   9.11413667
_cell_angle_alpha   90.00000000
_cell_angle_beta   90.00000000
_cell_angle_gamma   90.00000000
_symmetry_Int_Tables_number   1
_chemical_formula_structural   Na4Al3Si3IO12
_chemical_formula_sum   'Na8 Al6 Si6 I2 O24'
_cell_volume   757.08843153
_cell_formula_units_Z   2
loop_
 _symmetry_equiv_pos_site_id
 _symmetry_equiv_pos_as_xyz
  1  'x, y, z'
loop_
 _atom_site_type_symbol
 _atom_site_label
 _atom_site_symmetry_multiplicity
 _atom_site_fract_x
 _atom_site_fract_y
 _atom_site_fract_z
 _atom_site_occupancy
  Na  Na0  1  0.69950792  0.30049208  0.30049208  1
  Na  Na1  1  0.30049208  0.30049208  0.69950792  1
  Na  Na2  1  0.19950792  0.80049208  0.80049208  1
  Na  Na3  1  0.80049208  0.19950792  0.80049208  1
  Na  Na4  1  0.69950792  0.69950792  0.69950792  1
  Na  Na5  1  0.30049208  0.69950792  0.30049208  1
  Na  Na6  1  0.19950792  0.19950792  0.19950792  1
  Na  Na7  1  0.80049208  0.80049208  0.19950792  1
  Al  Al8  1  0.50000000  0.00000000  0.25000000  1
  Al  Al9  1  0.25000000  0.50000000  0.00000000  1
  Al  Al10  1  0.50000000  0.00000000  0.75000000  1
  Al  Al11  1  0.00000000  0.25000000  0.50000000  1
  Al  Al12  1  0.00000000  0.75000000  0.50000000  1
  Al  Al13  1  0.75000000  0.50000000  0.00000000  1
  Si  Si14  1  0.00000000  0.50000000  0.75000000  1
  Si  Si15  1  0.00000000  0.50000000  0.25000000  1
  Si  Si16  1  0.50000000  0.25000000  0.00000000  1
  Si  Si17  1  0.75000000  0.00000000  0.50000000  1
  Si  Si18  1  0.50000000  0.75000000  0.00000000  1
  Si  Si19  1  0.25000000  0.00000000  0.50000000  1
  I  I20  1  0.50000000  0.50000000  0.50000000  1
  I  I21  1  0.00000000  0.00000000  0.00000000  1
  O  O22  1  0.14229901  0.54992065  0.84802222  1
  O  O23  1  0.34802222  0.04992065  0.64229901  1
  O  O24  1  0.64229901  0.65197778  0.95007935  1
  O  O25  1  0.14229901  0.45007935  0.15197778  1
  O  O26  1  0.15197778  0.85770099  0.54992065  1
  O  O27  1  0.15197778  0.14229901  0.45007935  1
  O  O28  1  0.85770099  0.45007935  0.84802222  1
  O  O29  1  0.04992065  0.64229901  0.34802222  1
  O  O30  1  0.95007935  0.35770099  0.34802222  1
  O  O31  1  0.84802222  0.85770099  0.45007935  1
  O  O32  1  0.65197778  0.04992065  0.35770099  1
  O  O33  1  0.85770099  0.54992065  0.15197778  1
  O  O34  1  0.95007935  0.64229901  0.65197778  1
  O  O35  1  0.34802222  0.95007935  0.35770099  1
  O  O36  1  0.54992065  0.15197778  0.85770099  1
  O  O37  1  0.04992065  0.35770099  0.65197778  1
  O  O38  1  0.84802222  0.14229901  0.54992065  1
  O  O39  1  0.45007935  0.15197778  0.14229901  1
  O  O40  1  0.35770099  0.65197778  0.04992065  1
  O  O41  1  0.65197778  0.95007935  0.64229901  1
  O  O42  1  0.64229901  0.34802222  0.04992065  1
  O  O43  1  0.54992065  0.84802222  0.14229901  1
  O  O44  1  0.35770099  0.34802222  0.95007935  1
  O  O45  1  0.45007935  0.84802222  0.85770099  1
