# generated using pymatgen
data_Ba(AuF4)2
_symmetry_space_group_name_H-M   'P 1'
_cell_length_a   7.79852806
_cell_length_b   8.08425698
_cell_length_c   8.08425698
_cell_angle_alpha   76.54742900
_cell_angle_beta   61.16243759
_cell_angle_gamma   61.16243764
_symmetry_Int_Tables_number   1
_chemical_formula_structural   Ba(AuF4)2
_chemical_formula_sum   'Ba2 Au4 F16'
_cell_volume   391.10359766
_cell_formula_units_Z   2
loop_
 _symmetry_equiv_pos_site_id
 _symmetry_equiv_pos_as_xyz
  1  'x, y, z'
loop_
 _atom_site_type_symbol
 _atom_site_label
 _atom_site_symmetry_multiplicity
 _atom_site_fract_x
 _atom_site_fract_y
 _atom_site_fract_z
 _atom_site_occupancy
  F  F0  1  0.72325865  0.08117347  0.39644828  1
  F  F1  1  0.88029308  0.39644828  0.91882653  1
  F  F2  1  0.19556789  0.60355172  0.08117347  1
  F  F3  1  0.20088039  0.91882653  0.60355172  1
  F  F4  1  0.21912388  0.82703719  0.27974165  1
  F  F5  1  0.50113447  0.27974165  0.17296281  1
  F  F6  1  0.85687091  0.70580977  0.51236739  1
  F  F7  1  0.63076170  0.51236739  0.29419023  1
  F  F8  1  0.43731933  0.48763261  0.70580977  1
  F  F9  1  0.07504807  0.29419023  0.48763261  1
  F  F10  1  0.73138288  0.15961351  0.81083417  1
  F  F11  1  0.45778295  0.81083417  0.84038649  1
  F  F12  1  0.10900361  0.18916583  0.15961351  1
  F  F13  1  0.70183056  0.84038649  0.18916583  1
  F  F14  1  0.32590272  0.17296281  0.72025835  1
  F  F15  1  0.95383894  0.72025835  0.82703719  1
  Ba  Ba16  1  0.00000000  0.00000000  0.00000000  1
  Ba  Ba17  1  0.25000000  0.50000000  0.50000000  1
  Au  Au18  1  0.78956870  0.61543092  0.05994832  1
  Au  Au19  1  0.59500038  0.94005168  0.61543092  1
  Au  Au20  1  0.46494793  0.38456908  0.94005168  1
  Au  Au21  1  0.15048299  0.05994832  0.38456908  1
