# generated using pymatgen
data_Li4MnCr(WO6)2
_symmetry_space_group_name_H-M   'P 1'
_cell_length_a   5.35385350
_cell_length_b   10.68736242
_cell_length_c   9.40964387
_cell_angle_alpha   28.42792892
_cell_angle_beta   51.57065479
_cell_angle_gamma   56.88165258
_symmetry_Int_Tables_number   1
_chemical_formula_structural   Li4MnCr(WO6)2
_chemical_formula_sum   'Li4 Mn1 Cr1 W2 O12'
_cell_volume   200.78682160
_cell_formula_units_Z   1
loop_
 _symmetry_equiv_pos_site_id
 _symmetry_equiv_pos_as_xyz
  1  'x, y, z'
loop_
 _atom_site_type_symbol
 _atom_site_label
 _atom_site_symmetry_multiplicity
 _atom_site_fract_x
 _atom_site_fract_y
 _atom_site_fract_z
 _atom_site_occupancy
  Li  Li0  1  0.29038763  0.00199558  0.28895703  1
  Li  Li1  1  0.29297448  0.49981439  0.28834437  1
  Li  Li2  1  0.76744932  0.00020989  0.76692485  1
  Li  Li3  1  0.76800917  0.50012086  0.77030093  1
  Mn  Mn4  1  0.00154058  0.49925269  0.00156841  1
  Cr  Cr5  1  0.00117770  0.00378287  0.99932696  1
  W  W6  1  0.50147088  0.99920611  0.50403793  1
  W  W7  1  0.50680026  0.50285472  0.49849902  1
  O  O8  1  0.36237219  0.30154826  0.13301251  1
  O  O9  1  0.24089684  0.11772225  0.63038275  1
  O  O10  1  0.12952631  0.30996315  0.74178932  1
  O  O11  1  0.86687037  0.19512771  0.23947324  1
  O  O12  1  0.36296399  0.80152258  0.13637273  1
  O  O13  1  0.73667656  0.38337061  0.36419814  1
  O  O14  1  0.24098680  0.61783937  0.63110677  1
  O  O15  1  0.62838924  0.18802102  0.86484580  1
  O  O16  1  0.13204331  0.81047934  0.74132038  1
  O  O17  1  0.86880953  0.69551417  0.24045364  1
  O  O18  1  0.74032602  0.88502189  0.36298864  1
  O  O19  1  0.63152880  0.68663354  0.86729759  1
