# generated using pymatgen
data_NaZnSiHO4
_symmetry_space_group_name_H-M   'P 1'
_cell_length_a   7.76266752
_cell_length_b   9.49241765
_cell_length_c   5.21640211
_cell_angle_alpha   90.00000000
_cell_angle_beta   90.00000000
_cell_angle_gamma   90.00000000
_symmetry_Int_Tables_number   1
_chemical_formula_structural   NaZnSiHO4
_chemical_formula_sum   'Na4 Zn4 Si4 H4 O16'
_cell_volume   384.37832111
_cell_formula_units_Z   4
loop_
 _symmetry_equiv_pos_site_id
 _symmetry_equiv_pos_as_xyz
  1  'x, y, z'
loop_
 _atom_site_type_symbol
 _atom_site_label
 _atom_site_symmetry_multiplicity
 _atom_site_fract_x
 _atom_site_fract_y
 _atom_site_fract_z
 _atom_site_occupancy
  Na  Na0  1  0.20476830  0.33336398  0.02373774  1
  Na  Na1  1  0.29523170  0.66663602  0.52373774  1
  Na  Na2  1  0.70476830  0.16663602  0.97626226  1
  Na  Na3  1  0.79523170  0.83336398  0.47626226  1
  Zn  Zn4  1  0.88921212  0.48891116  0.47808242  1
  Zn  Zn5  1  0.61078788  0.51108884  0.97808242  1
  Zn  Zn6  1  0.38921212  0.01108884  0.52191758  1
  Zn  Zn7  1  0.11078788  0.98891116  0.02191758  1
  Si  Si8  1  0.01510404  0.16151456  0.51124607  1
  Si  Si9  1  0.48489596  0.83848544  0.01124607  1
  Si  Si10  1  0.51510404  0.33848544  0.48875393  1
  Si  Si11  1  0.98489596  0.66151456  0.98875393  1
  H  H12  1  0.77950361  0.87495067  0.97314991  1
  H  H13  1  0.72049639  0.12504933  0.47314991  1
  H  H14  1  0.27950361  0.62504933  0.02685009  1
  H  H15  1  0.22049639  0.37495067  0.52685009  1
  O  O16  1  0.01939303  0.14889475  0.82356626  1
  O  O17  1  0.48060697  0.85110525  0.32356626  1
  O  O18  1  0.51939303  0.35110525  0.17643374  1
  O  O19  1  0.98060697  0.64889475  0.67643374  1
  O  O20  1  0.03986975  0.32647675  0.42268768  1
  O  O21  1  0.46013025  0.67352325  0.92268768  1
  O  O22  1  0.53986975  0.17352325  0.57731232  1
  O  O23  1  0.96013025  0.82647675  0.07731232  1
  O  O24  1  0.66797764  0.42997224  0.63354504  1
  O  O25  1  0.83202236  0.57002776  0.13354504  1
  O  O26  1  0.16797764  0.07002776  0.36645496  1
  O  O27  1  0.33202236  0.92997224  0.86645496  1
  O  O28  1  0.33341938  0.40739793  0.60841299  1
  O  O29  1  0.16658062  0.59260207  0.10841299  1
  O  O30  1  0.83341938  0.09260207  0.39158701  1
  O  O31  1  0.66658062  0.90739793  0.89158701  1
