# generated using pymatgen
data_CsSc3(CuTe3)2
_symmetry_space_group_name_H-M   'P 1'
_cell_length_a   4.15718564
_cell_length_b   9.18975391
_cell_length_c   10.40116070
_cell_angle_alpha   112.41078050
_cell_angle_beta   89.87669023
_cell_angle_gamma   103.06958759
_symmetry_Int_Tables_number   1
_chemical_formula_structural   CsSc3(CuTe3)2
_chemical_formula_sum   'Cs1 Sc3 Cu2 Te6'
_cell_volume   356.27175549
_cell_formula_units_Z   1
loop_
 _symmetry_equiv_pos_site_id
 _symmetry_equiv_pos_as_xyz
  1  'x, y, z'
loop_
 _atom_site_type_symbol
 _atom_site_label
 _atom_site_symmetry_multiplicity
 _atom_site_fract_x
 _atom_site_fract_y
 _atom_site_fract_z
 _atom_site_occupancy
  Cs  Cs0  1  0.00278843  0.00203586  0.50423604  1
  Sc  Sc1  1  0.28542899  0.57855866  0.86589111  1
  Sc  Sc2  1  0.70767777  0.42187441  0.13509347  1
  Sc  Sc3  1  0.99510604  0.00019774  0.00110767  1
  Cu  Cu4  1  0.28115463  0.55614963  0.58632621  1
  Cu  Cu5  1  0.72697193  0.44896819  0.41554051  1
  Te  Te6  1  0.56666988  0.14508166  0.21403743  1
  Te  Te7  1  0.13876301  0.28245030  0.92513975  1
  Te  Te8  1  0.70382538  0.40737145  0.65003699  1
  Te  Te9  1  0.85315995  0.71808227  0.07623969  1
  Te  Te10  1  0.42597262  0.85714332  0.78790507  1
  Te  Te11  1  0.29755638  0.59561150  0.35065907  1
