# generated using pymatgen
data_H4CN5Cl
_symmetry_space_group_name_H-M   'P 1'
_cell_length_a   6.02415868
_cell_length_b   6.02415868
_cell_length_c   9.82032981
_cell_angle_alpha   88.81238945
_cell_angle_beta   91.18761055
_cell_angle_gamma   50.86578375
_symmetry_Int_Tables_number   1
_chemical_formula_structural   H4CN5Cl
_chemical_formula_sum   'H8 C2 N10 Cl2'
_cell_volume   276.11455483
_cell_formula_units_Z   2
loop_
 _symmetry_equiv_pos_site_id
 _symmetry_equiv_pos_as_xyz
  1  'x, y, z'
loop_
 _atom_site_type_symbol
 _atom_site_label
 _atom_site_symmetry_multiplicity
 _atom_site_fract_x
 _atom_site_fract_y
 _atom_site_fract_z
 _atom_site_occupancy
  H  H0  1  0.31835487  0.94634301  0.05398273  1
  H  H1  1  0.05365699  0.68164513  0.55398273  1
  H  H2  1  0.51338017  0.91956513  0.91316422  1
  H  H3  1  0.08043487  0.48661983  0.41316422  1
  H  H4  1  0.80413040  0.48662342  0.80310573  1
  H  H5  1  0.51337658  0.19586960  0.30310573  1
  H  H6  1  0.73379441  0.23911615  0.82138390  1
  H  H7  1  0.76088385  0.26620559  0.32138390  1
  C  C8  1  0.50862116  0.58985461  0.93981926  1
  C  C9  1  0.41014539  0.49137884  0.43981926  1
  N  N10  1  0.39359047  0.47840438  0.00638949  1
  N  N11  1  0.52159562  0.60640953  0.50638949  1
  N  N12  1  0.16500841  0.65331836  0.06431160  1
  N  N13  1  0.34668164  0.83499159  0.56431160  1
  N  N14  1  0.95730097  0.78690234  0.12057460  1
  N  N15  1  0.21309766  0.04269903  0.62057460  1
  N  N16  1  0.42526364  0.84644334  0.96661258  1
  N  N17  1  0.15355666  0.57473636  0.46661258  1
  N  N18  1  0.70294348  0.42096170  0.85093384  1
  N  N19  1  0.57903830  0.29705652  0.35093384  1
  Cl  Cl20  1  0.84183407  0.84288960  0.75022205  1
  Cl  Cl21  1  0.15711040  0.15816593  0.25022205  1
