# generated using pymatgen
data_CSO
_symmetry_space_group_name_H-M   'P 1'
_cell_length_a   4.30833892
_cell_length_b   4.30833891
_cell_length_c   4.30833892
_cell_angle_alpha   99.73595038
_cell_angle_beta   99.73595030
_cell_angle_gamma   99.73595048
_symmetry_Int_Tables_number   1
_chemical_formula_structural   CSO
_chemical_formula_sum   'C1 S1 O1'
_cell_volume   76.05756054
_cell_formula_units_Z   1
loop_
 _symmetry_equiv_pos_site_id
 _symmetry_equiv_pos_as_xyz
  1  'x, y, z'
loop_
 _atom_site_type_symbol
 _atom_site_label
 _atom_site_symmetry_multiplicity
 _atom_site_fract_x
 _atom_site_fract_y
 _atom_site_fract_z
 _atom_site_occupancy
  C  C0  1  0.20229696  0.20229696  0.20229696  1
  O  O1  1  0.00850747  0.00850747  0.00850747  1
  S  S2  1  0.45899558  0.45899558  0.45899558  1
