# generated using pymatgen
data_NClO6
_symmetry_space_group_name_H-M   'P 1'
_cell_length_a   5.88201620
_cell_length_b   5.88201620
_cell_length_c   7.37088614
_cell_angle_alpha   73.54334347
_cell_angle_beta   73.54334344
_cell_angle_gamma   75.78371450
_symmetry_Int_Tables_number   1
_chemical_formula_structural   NClO6
_chemical_formula_sum   'N2 Cl2 O12'
_cell_volume   230.73213251
_cell_formula_units_Z   2
loop_
 _symmetry_equiv_pos_site_id
 _symmetry_equiv_pos_as_xyz
  1  'x, y, z'
loop_
 _atom_site_type_symbol
 _atom_site_label
 _atom_site_symmetry_multiplicity
 _atom_site_fract_x
 _atom_site_fract_y
 _atom_site_fract_z
 _atom_site_occupancy
  N  N0  1  0.83354215  0.16645785  0.75000000  1
  N  N1  1  0.16645785  0.83354215  0.25000000  1
  O  O2  1  0.29723189  0.96468061  0.20688935  1
  O  O3  1  0.03531939  0.70276811  0.29311065  1
  O  O4  1  0.24803507  0.85115249  0.87744353  1
  O  O5  1  0.14884751  0.75196493  0.62255647  1
  O  O6  1  0.75196493  0.14884751  0.12255647  1
  O  O7  1  0.85115249  0.24803507  0.37744353  1
  O  O8  1  0.56292713  0.69379276  0.63362818  1
  O  O9  1  0.30620724  0.43707287  0.86637182  1
  O  O10  1  0.43707287  0.30620724  0.36637182  1
  O  O11  1  0.69379276  0.56292713  0.13362818  1
  O  O12  1  0.96468061  0.29723189  0.70688935  1
  O  O13  1  0.70276811  0.03531939  0.79311065  1
  Cl  Cl14  1  0.68074501  0.31925499  0.25000000  1
  Cl  Cl15  1  0.31925499  0.68074501  0.75000000  1
