# generated using pymatgen
data_Na5SnP3
_symmetry_space_group_name_H-M   'P 1'
_cell_length_a   7.49300049
_cell_length_b   8.35073636
_cell_length_c   13.39949445
_cell_angle_alpha   90.36275149
_cell_angle_beta   90.00000000
_cell_angle_gamma   90.00000000
_symmetry_Int_Tables_number   1
_chemical_formula_structural   Na5SnP3
_chemical_formula_sum   'Na20 Sn4 P12'
_cell_volume   838.41732312
_cell_formula_units_Z   4
loop_
 _symmetry_equiv_pos_site_id
 _symmetry_equiv_pos_as_xyz
  1  'x, y, z'
loop_
 _atom_site_type_symbol
 _atom_site_label
 _atom_site_symmetry_multiplicity
 _atom_site_fract_x
 _atom_site_fract_y
 _atom_site_fract_z
 _atom_site_occupancy
  Na  Na0  1  0.50374819  0.66712052  0.75995471  1
  Na  Na1  1  0.00374819  0.83287948  0.74004529  1
  Na  Na2  1  0.49625181  0.33287948  0.24004529  1
  Na  Na3  1  0.99625181  0.16712052  0.25995471  1
  Na  Na4  1  0.95991669  0.17719845  0.58892757  1
  Na  Na5  1  0.45991669  0.32280155  0.91107243  1
  Na  Na6  1  0.04008331  0.82280155  0.41107243  1
  Na  Na7  1  0.54008331  0.67719845  0.08892757  1
  Na  Na8  1  0.47802962  0.33541317  0.58797716  1
  Na  Na9  1  0.97802962  0.16458683  0.91202284  1
  Na  Na10  1  0.52197038  0.66458683  0.41202284  1
  Na  Na11  1  0.02197038  0.83541317  0.08797716  1
  Na  Na12  1  0.33954308  0.92251239  0.91784624  1
  Na  Na13  1  0.83954308  0.57748761  0.58215376  1
  Na  Na14  1  0.66045692  0.07748761  0.08215376  1
  Na  Na15  1  0.16045692  0.42251239  0.41784624  1
  Na  Na16  1  0.14227145  0.42732547  0.74241535  1
  Na  Na17  1  0.64227145  0.07267453  0.75758465  1
  Na  Na18  1  0.85772855  0.57267453  0.25758465  1
  Na  Na19  1  0.35772855  0.92732547  0.24241535  1
  P  P20  1  0.29802498  0.09426166  0.42894866  1
  P  P21  1  0.79802498  0.40573834  0.07105134  1
  P  P22  1  0.70197502  0.90573834  0.57105134  1
  P  P23  1  0.20197502  0.59426166  0.92894866  1
  P  P24  1  0.23248398  0.64385183  0.58216029  1
  P  P25  1  0.73248398  0.85614817  0.91783971  1
  P  P26  1  0.76751602  0.35614817  0.41783971  1
  P  P27  1  0.26751602  0.14385183  0.08216029  1
  P  P28  1  0.25484223  0.09766440  0.73627379  1
  P  P29  1  0.75484223  0.40233560  0.76372621  1
  P  P30  1  0.74515777  0.90233560  0.26372621  1
  P  P31  1  0.24515777  0.59766440  0.23627379  1
  Sn  Sn32  1  0.35283559  0.92786586  0.58904792  1
  Sn  Sn33  1  0.85283559  0.57213414  0.91095208  1
  Sn  Sn34  1  0.64716441  0.07213414  0.41095208  1
  Sn  Sn35  1  0.14716441  0.42786586  0.08904792  1
