# generated using pymatgen
data_Ti(Bi3O5)4
_symmetry_space_group_name_H-M   'P 1'
_cell_length_a   8.93697158
_cell_length_b   8.93697158
_cell_length_c   8.93697158
_cell_angle_alpha   109.47122066
_cell_angle_beta   109.47122065
_cell_angle_gamma   109.47122059
_symmetry_Int_Tables_number   1
_chemical_formula_structural   Ti(Bi3O5)4
_chemical_formula_sum   'Ti1 Bi12 O20'
_cell_volume   549.47664757
_cell_formula_units_Z   1
loop_
 _symmetry_equiv_pos_site_id
 _symmetry_equiv_pos_as_xyz
  1  'x, y, z'
loop_
 _atom_site_type_symbol
 _atom_site_label
 _atom_site_symmetry_multiplicity
 _atom_site_fract_x
 _atom_site_fract_y
 _atom_site_fract_z
 _atom_site_occupancy
  O  O0  1  0.20663524  0.00000000  0.00000000  1
  O  O1  1  0.00000000  0.00000000  0.20663524  1
  O  O2  1  0.00000000  0.20663524  0.00000000  1
  O  O3  1  0.79336476  0.79336476  0.79336476  1
  O  O4  1  0.61349700  0.00000000  0.00000000  1
  O  O5  1  0.00000000  0.00000000  0.61349700  1
  O  O6  1  0.00000000  0.61349700  0.00000000  1
  O  O7  1  0.38650300  0.38650300  0.38650300  1
  O  O8  1  0.26103934  0.64210416  0.88100657  1
  O  O9  1  0.76109759  0.38003277  0.11899343  1
  O  O10  1  0.23890241  0.35789584  0.61893518  1
  O  O11  1  0.61996723  0.38106482  0.73896066  1
  O  O12  1  0.38106482  0.73896066  0.61996723  1
  O  O13  1  0.73896066  0.61996723  0.38106482  1
  O  O14  1  0.35789584  0.61893518  0.23890241  1
  O  O15  1  0.11899343  0.76109759  0.38003277  1
  O  O16  1  0.64210416  0.88100657  0.26103934  1
  O  O17  1  0.61893518  0.23890241  0.35789584  1
  O  O18  1  0.38003277  0.11899343  0.76109759  1
  O  O19  1  0.88100657  0.26103934  0.64210416  1
  Ti  Ti20  1  0.00000000  0.00000000  0.00000000  1
  Bi  Bi21  1  0.66662368  0.16291374  0.85912828  1
  Bi  Bi22  1  0.30378546  0.80749540  0.14087172  1
  Bi  Bi23  1  0.69621454  0.83708626  0.50370994  1
  Bi  Bi24  1  0.19250460  0.49629006  0.33337632  1
  Bi  Bi25  1  0.49629006  0.33337632  0.19250460  1
  Bi  Bi26  1  0.85912828  0.66662368  0.16291374  1
  Bi  Bi27  1  0.80749540  0.14087172  0.30378546  1
  Bi  Bi28  1  0.50370994  0.69621454  0.83708626  1
  Bi  Bi29  1  0.16291374  0.85912828  0.66662368  1
  Bi  Bi30  1  0.14087172  0.30378546  0.80749540  1
  Bi  Bi31  1  0.83708626  0.50370994  0.69621454  1
  Bi  Bi32  1  0.33337632  0.19250460  0.49629006  1
