# generated using pymatgen
data_SrGe(HO2)2
_symmetry_space_group_name_H-M   'P 1'
_cell_length_a   6.25635930
_cell_length_b   6.25635930
_cell_length_c   6.25635930
_cell_angle_alpha   107.18945492
_cell_angle_beta   107.18945494
_cell_angle_gamma   114.13798461
_symmetry_Int_Tables_number   1
_chemical_formula_structural   SrGe(HO2)2
_chemical_formula_sum   'Sr2 Ge2 H4 O8'
_cell_volume   187.56793440
_cell_formula_units_Z   2
loop_
 _symmetry_equiv_pos_site_id
 _symmetry_equiv_pos_as_xyz
  1  'x, y, z'
loop_
 _atom_site_type_symbol
 _atom_site_label
 _atom_site_symmetry_multiplicity
 _atom_site_fract_x
 _atom_site_fract_y
 _atom_site_fract_z
 _atom_site_occupancy
  H  H0  1  0.70258880  0.62500000  0.57758880  1
  H  H1  1  0.37500000  0.95258880  0.07758880  1
  H  H2  1  0.87500000  0.29741120  0.92241120  1
  H  H3  1  0.04741120  0.12500000  0.42241120  1
  O  O4  1  0.01281555  0.93057497  0.25846777  1
  O  O5  1  0.06942503  0.32789280  0.08224058  1
  O  O6  1  0.24565222  0.98718445  0.91775942  1
  O  O7  1  0.67210720  0.75434778  0.74153223  1
  O  O8  1  0.07789280  0.31942503  0.58224058  1
  O  O9  1  0.73718445  0.49565222  0.41775942  1
  O  O10  1  0.68057497  0.26281555  0.75846777  1
  O  O11  1  0.50434778  0.92210720  0.24153223  1
  Ge  Ge12  1  0.00000000  0.00000000  0.00000000  1
  Ge  Ge13  1  0.75000000  0.25000000  0.50000000  1
  Sr  Sr14  1  0.50000000  0.50000000  0.00000000  1
  Sr  Sr15  1  0.25000000  0.75000000  0.50000000  1
