# generated using pymatgen
data_NaZn(HO)3
_symmetry_space_group_name_H-M   'P 1'
_cell_length_a   10.94096179
_cell_length_b   10.94096179
_cell_length_c   5.42079916
_cell_angle_alpha   90.00000000
_cell_angle_beta   90.00000000
_cell_angle_gamma   90.00000000
_symmetry_Int_Tables_number   1
_chemical_formula_structural   NaZn(HO)3
_chemical_formula_sum   'Na8 Zn8 H24 O24'
_cell_volume   648.89483847
_cell_formula_units_Z   8
loop_
 _symmetry_equiv_pos_site_id
 _symmetry_equiv_pos_as_xyz
  1  'x, y, z'
loop_
 _atom_site_type_symbol
 _atom_site_label
 _atom_site_symmetry_multiplicity
 _atom_site_fract_x
 _atom_site_fract_y
 _atom_site_fract_z
 _atom_site_occupancy
  Na  Na0  1  0.09145599  0.12599559  0.46506842  1
  Na  Na1  1  0.40854401  0.62599559  0.46506842  1
  Na  Na2  1  0.12599559  0.90854401  0.96506842  1
  Na  Na3  1  0.62599559  0.59145599  0.96506842  1
  Na  Na4  1  0.90854401  0.87400441  0.46506842  1
  Na  Na5  1  0.59145599  0.37400441  0.46506842  1
  Na  Na6  1  0.87400441  0.09145599  0.96506842  1
  Na  Na7  1  0.37400441  0.40854401  0.96506842  1
  Zn  Zn8  1  0.19651237  0.44577614  0.48275310  1
  Zn  Zn9  1  0.30348763  0.94577614  0.48275310  1
  Zn  Zn10  1  0.44577614  0.80348763  0.98275310  1
  Zn  Zn11  1  0.94577614  0.69651237  0.98275310  1
  Zn  Zn12  1  0.80348763  0.55422386  0.48275310  1
  Zn  Zn13  1  0.69651237  0.05422386  0.48275310  1
  Zn  Zn14  1  0.55422386  0.19651237  0.98275310  1
  Zn  Zn15  1  0.05422386  0.30348763  0.98275310  1
  H  H16  1  0.51171089  0.86659914  0.40285989  1
  H  H17  1  0.98828911  0.36659914  0.40285989  1
  H  H18  1  0.86659914  0.48828911  0.90285989  1
  H  H19  1  0.36659914  0.01171089  0.90285989  1
  H  H20  1  0.48828911  0.13340086  0.40285989  1
  H  H21  1  0.01171089  0.63340086  0.40285989  1
  H  H22  1  0.13340086  0.51171089  0.90285989  1
  H  H23  1  0.63340086  0.98828911  0.90285989  1
  H  H24  1  0.36546265  0.31052219  0.43938647  1
  H  H25  1  0.13453735  0.81052219  0.43938647  1
  H  H26  1  0.31052219  0.63453735  0.93938647  1
  H  H27  1  0.81052219  0.86546265  0.93938647  1
  H  H28  1  0.63453735  0.68947781  0.43938647  1
  H  H29  1  0.86546265  0.18947781  0.43938647  1
  H  H30  1  0.68947781  0.36546265  0.93938647  1
  H  H31  1  0.18947781  0.13453735  0.93938647  1
  H  H32  1  0.17651304  0.64060894  0.24652942  1
  H  H33  1  0.32348696  0.14060894  0.24652942  1
  H  H34  1  0.64060894  0.82348696  0.74652942  1
  H  H35  1  0.14060894  0.67651304  0.74652942  1
  H  H36  1  0.82348696  0.35939106  0.24652942  1
  H  H37  1  0.67651304  0.85939106  0.24652942  1
  H  H38  1  0.35939106  0.17651304  0.74652942  1
  H  H39  1  0.85939106  0.32348696  0.74652942  1
  O  O40  1  0.43051233  0.83672713  0.34880229  1
  O  O41  1  0.06948767  0.33672713  0.34880229  1
  O  O42  1  0.83672713  0.56948767  0.84880229  1
  O  O43  1  0.33672713  0.93051233  0.84880229  1
  O  O44  1  0.56948767  0.16327287  0.34880229  1
  O  O45  1  0.93051233  0.66327287  0.34880229  1
  O  O46  1  0.16327287  0.43051233  0.84880229  1
  O  O47  1  0.66327287  0.06948767  0.84880229  1
  O  O48  1  0.36987376  0.40017436  0.42824483  1
  O  O49  1  0.13012624  0.90017436  0.42824483  1
  O  O50  1  0.40017436  0.63012624  0.92824483  1
  O  O51  1  0.90017436  0.86987376  0.92824483  1
  O  O52  1  0.63012624  0.59982564  0.42824483  1
  O  O53  1  0.86987376  0.09982564  0.42824483  1
  O  O54  1  0.59982564  0.36987376  0.92824483  1
  O  O55  1  0.09982564  0.13012624  0.92824483  1
  O  O56  1  0.18678038  0.62352033  0.42435558  1
  O  O57  1  0.31321962  0.12352033  0.42435558  1
  O  O58  1  0.62352033  0.81321962  0.92435558  1
  O  O59  1  0.12352033  0.68678038  0.92435558  1
  O  O60  1  0.81321962  0.37647967  0.42435558  1
  O  O61  1  0.68678038  0.87647967  0.42435558  1
  O  O62  1  0.37647967  0.18678038  0.92435558  1
  O  O63  1  0.87647967  0.31321962  0.92435558  1
