# generated using pymatgen
data_CsS
_symmetry_space_group_name_H-M   'P 1'
_cell_length_a   5.28605986
_cell_length_b   6.42028700
_cell_length_c   6.42028700
_cell_angle_alpha   69.88858606
_cell_angle_beta   65.69030931
_cell_angle_gamma   65.69030931
_symmetry_Int_Tables_number   1
_chemical_formula_structural   CsS
_chemical_formula_sum   'Cs2 S2'
_cell_volume   176.93187119
_cell_formula_units_Z   2
loop_
 _symmetry_equiv_pos_site_id
 _symmetry_equiv_pos_as_xyz
  1  'x, y, z'
loop_
 _atom_site_type_symbol
 _atom_site_label
 _atom_site_symmetry_multiplicity
 _atom_site_fract_x
 _atom_site_fract_y
 _atom_site_fract_z
 _atom_site_occupancy
  S  S0  1  0.00000000  0.14436279  0.85563721  1
  S  S1  1  0.00000000  0.85563721  0.14436279  1
  Cs  Cs2  1  0.72724929  0.77275071  0.77275071  1
  Cs  Cs3  1  0.27275071  0.22724929  0.22724929  1
