# generated using pymatgen
data_Ba3V2S4O3
_symmetry_space_group_name_H-M   'P 1'
_cell_length_a   10.29354004
_cell_length_b   10.29354005
_cell_length_c   6.11017308
_cell_angle_alpha   90.00000000
_cell_angle_beta   90.00000000
_cell_angle_gamma   120.00000000
_symmetry_Int_Tables_number   1
_chemical_formula_structural   Ba3V2S4O3
_chemical_formula_sum   'Ba6 V4 S8 O6'
_cell_volume   560.67818760
_cell_formula_units_Z   2
loop_
 _symmetry_equiv_pos_site_id
 _symmetry_equiv_pos_as_xyz
  1  'x, y, z'
loop_
 _atom_site_type_symbol
 _atom_site_label
 _atom_site_symmetry_multiplicity
 _atom_site_fract_x
 _atom_site_fract_y
 _atom_site_fract_z
 _atom_site_occupancy
  O  O0  1  0.37576956  0.53514324  0.40799646  1
  O  O1  1  0.84062632  0.37576956  0.90799646  1
  O  O2  1  0.53514324  0.15937368  0.90799646  1
  O  O3  1  0.46485676  0.84062632  0.40799646  1
  O  O4  1  0.15937368  0.62423044  0.40799646  1
  O  O5  1  0.62423044  0.46485676  0.90799646  1
  S  S6  1  0.33333333  0.66666667  0.94173958  1
  S  S7  1  0.66666667  0.33333333  0.44173958  1
  S  S8  1  0.78975876  0.82578542  0.18995158  1
  S  S9  1  0.96397334  0.78975876  0.68995158  1
  S  S10  1  0.21024124  0.17421458  0.68995158  1
  S  S11  1  0.03602666  0.21024124  0.18995158  1
  S  S12  1  0.17421458  0.96397334  0.18995158  1
  S  S13  1  0.82578542  0.03602666  0.68995158  1
  V  V14  1  0.33333333  0.66666667  0.30741310  1
  V  V15  1  0.66666667  0.33333333  0.80741310  1
  V  V16  1  0.00000000  0.00000000  0.94008530  1
  V  V17  1  0.00000000  0.00000000  0.44008530  1
  Ba  Ba18  1  0.93172926  0.62225319  0.17107597  1
  Ba  Ba19  1  0.30947607  0.93172926  0.67107597  1
  Ba  Ba20  1  0.62225319  0.69052393  0.67107597  1
  Ba  Ba21  1  0.37774681  0.30947607  0.17107597  1
  Ba  Ba22  1  0.69052393  0.06827074  0.17107597  1
  Ba  Ba23  1  0.06827074  0.37774681  0.67107597  1
