# generated using pymatgen
data_La4MnSe6O
_symmetry_space_group_name_H-M   'P 1'
_cell_length_a   9.83621453
_cell_length_b   9.83621453
_cell_length_c   7.13784900
_cell_angle_alpha   90.00000000
_cell_angle_beta   90.00000000
_cell_angle_gamma   119.99999997
_symmetry_Int_Tables_number   1
_chemical_formula_structural   La4MnSe6O
_chemical_formula_sum   'La8 Mn2 Se12 O2'
_cell_volume   598.07269126
_cell_formula_units_Z   2
loop_
 _symmetry_equiv_pos_site_id
 _symmetry_equiv_pos_as_xyz
  1  'x, y, z'
loop_
 _atom_site_type_symbol
 _atom_site_label
 _atom_site_symmetry_multiplicity
 _atom_site_fract_x
 _atom_site_fract_y
 _atom_site_fract_z
 _atom_site_occupancy
  O  O0  1  0.66666667  0.33333333  0.04375854  1
  O  O1  1  0.33333333  0.66666667  0.54375854  1
  Mn  Mn2  1  0.00000000  0.00000000  0.49446566  1
  Mn  Mn3  1  0.00000000  0.00000000  0.99446566  1
  Se  Se4  1  0.53014801  0.06029601  0.44489832  1
  Se  Se5  1  0.46985199  0.93970399  0.94489832  1
  Se  Se6  1  0.06029601  0.53014801  0.94489832  1
  Se  Se7  1  0.53014801  0.46985199  0.44489832  1
  Se  Se8  1  0.93970399  0.46985199  0.44489832  1
  Se  Se9  1  0.46985199  0.53014801  0.94489832  1
  Se  Se10  1  0.12613096  0.87386904  0.26294574  1
  Se  Se11  1  0.25226193  0.12613096  0.76294574  1
  Se  Se12  1  0.87386904  0.74773807  0.76294574  1
  Se  Se13  1  0.12613096  0.25226193  0.26294574  1
  Se  Se14  1  0.74773807  0.87386904  0.26294574  1
  Se  Se15  1  0.87386904  0.12613096  0.76294574  1
  La  La16  1  0.66666667  0.33333333  0.70732790  1
  La  La17  1  0.33333333  0.66666667  0.20732790  1
  La  La18  1  0.20025588  0.79974412  0.66058858  1
  La  La19  1  0.40051177  0.20025588  0.16058858  1
  La  La20  1  0.79974412  0.59948823  0.16058858  1
  La  La21  1  0.20025588  0.40051177  0.66058858  1
  La  La22  1  0.59948823  0.79974412  0.66058858  1
  La  La23  1  0.79974412  0.20025588  0.16058858  1
