# generated using pymatgen
data_Ba(GeP)2
_symmetry_space_group_name_H-M   'P 1'
_cell_length_a   7.72255208
_cell_length_b   7.72255208
_cell_length_c   8.61596661
_cell_angle_alpha   90.00000000
_cell_angle_beta   90.00000000
_cell_angle_gamma   90.00000000
_symmetry_Int_Tables_number   1
_chemical_formula_structural   Ba(GeP)2
_chemical_formula_sum   'Ba4 Ge8 P8'
_cell_volume   513.83738507
_cell_formula_units_Z   4
loop_
 _symmetry_equiv_pos_site_id
 _symmetry_equiv_pos_as_xyz
  1  'x, y, z'
loop_
 _atom_site_type_symbol
 _atom_site_label
 _atom_site_symmetry_multiplicity
 _atom_site_fract_x
 _atom_site_fract_y
 _atom_site_fract_z
 _atom_site_occupancy
  P  P0  1  0.24887906  0.23374590  0.75642392  1
  P  P1  1  0.75112094  0.76625410  0.75642392  1
  P  P2  1  0.23374590  0.75112094  0.25642392  1
  P  P3  1  0.76625410  0.24887906  0.25642392  1
  P  P4  1  0.75112094  0.23374590  0.75642392  1
  P  P5  1  0.23374590  0.24887906  0.25642392  1
  P  P6  1  0.76625410  0.75112094  0.25642392  1
  P  P7  1  0.24887906  0.76625410  0.75642392  1
  Ge  Ge8  1  0.50000000  0.16695921  0.61575641  1
  Ge  Ge9  1  0.83304079  0.50000000  0.11575641  1
  Ge  Ge10  1  0.16695921  0.50000000  0.11575641  1
  Ge  Ge11  1  0.50000000  0.83304079  0.61575641  1
  Ge  Ge12  1  0.50000000  0.33155530  0.36533852  1
  Ge  Ge13  1  0.33155530  0.50000000  0.86533852  1
  Ge  Ge14  1  0.66844470  0.50000000  0.86533852  1
  Ge  Ge15  1  0.50000000  0.66844470  0.36533852  1
  Ba  Ba16  1  0.00000000  0.50000000  0.52761808  1
  Ba  Ba17  1  0.50000000  0.00000000  0.02761808  1
  Ba  Ba18  1  0.00000000  0.00000000  0.49689637  1
  Ba  Ba19  1  0.00000000  0.00000000  0.99689637  1
