# generated using pymatgen
data_LuCuS2
_symmetry_space_group_name_H-M   'P 1'
_cell_length_a   3.85503117
_cell_length_b   3.85507893
_cell_length_c   6.10045820
_cell_angle_alpha   89.99995576
_cell_angle_beta   89.99957929
_cell_angle_gamma   120.00066775
_symmetry_Int_Tables_number   1
_chemical_formula_structural   LuCuS2
_chemical_formula_sum   'Lu1 Cu1 S2'
_cell_volume   78.51476462
_cell_formula_units_Z   1
loop_
 _symmetry_equiv_pos_site_id
 _symmetry_equiv_pos_as_xyz
  1  'x, y, z'
loop_
 _atom_site_type_symbol
 _atom_site_label
 _atom_site_symmetry_multiplicity
 _atom_site_fract_x
 _atom_site_fract_y
 _atom_site_fract_z
 _atom_site_occupancy
  Lu  Lu0  1  0.99999872  0.99999954  0.00309013  1
  Cu  Cu1  1  0.33337521  0.66668514  0.39808753  1
  S  S2  1  0.33334135  0.66667293  0.77370886  1
  S  S3  1  0.66668472  0.33334239  0.26811347  1
