# generated using pymatgen
data_Zr(WO4)2
_symmetry_space_group_name_H-M   'P 1'
_cell_length_a   9.36435291
_cell_length_b   9.36435291
_cell_length_c   9.36435291
_cell_angle_alpha   90.00000000
_cell_angle_beta   90.00000000
_cell_angle_gamma   90.00000000
_symmetry_Int_Tables_number   1
_chemical_formula_structural   Zr(WO4)2
_chemical_formula_sum   'Zr4 W8 O32'
_cell_volume   821.17045825
_cell_formula_units_Z   4
loop_
 _symmetry_equiv_pos_site_id
 _symmetry_equiv_pos_as_xyz
  1  'x, y, z'
loop_
 _atom_site_type_symbol
 _atom_site_label
 _atom_site_symmetry_multiplicity
 _atom_site_fract_x
 _atom_site_fract_y
 _atom_site_fract_z
 _atom_site_occupancy
  O  O0  1  0.76290936  0.73709064  0.26290936  1
  O  O1  1  0.73709064  0.26290936  0.76290936  1
  O  O2  1  0.26290936  0.76290936  0.73709064  1
  O  O3  1  0.23709064  0.23709064  0.23709064  1
  O  O4  1  0.51072697  0.98927303  0.01072697  1
  O  O5  1  0.98927303  0.01072697  0.51072697  1
  O  O6  1  0.01072697  0.51072697  0.98927303  1
  O  O7  1  0.48927303  0.48927303  0.48927303  1
  O  O8  1  0.71400544  0.43255453  0.05461052  1
  O  O9  1  0.21400544  0.06744547  0.94538948  1
  O  O10  1  0.28599456  0.93255453  0.44538948  1
  O  O11  1  0.06744547  0.94538948  0.21400544  1
  O  O12  1  0.20486777  0.44125458  0.44697555  1
  O  O13  1  0.44697555  0.20486777  0.44125458  1
  O  O14  1  0.44125458  0.44697555  0.20486777  1
  O  O15  1  0.05874542  0.55302445  0.70486777  1
  O  O16  1  0.94697555  0.29513223  0.55874542  1
  O  O17  1  0.55874542  0.94697555  0.29513223  1
  O  O18  1  0.05302445  0.79513223  0.94125458  1
  O  O19  1  0.55302445  0.70486777  0.05874542  1
  O  O20  1  0.94125458  0.05302445  0.79513223  1
  O  O21  1  0.70486777  0.05874542  0.55302445  1
  O  O22  1  0.79513223  0.94125458  0.05302445  1
  O  O23  1  0.29513223  0.55874542  0.94697555  1
  O  O24  1  0.78599456  0.56744547  0.55461052  1
  O  O25  1  0.55461052  0.78599456  0.56744547  1
  O  O26  1  0.56744547  0.55461052  0.78599456  1
  O  O27  1  0.93255453  0.44538948  0.28599456  1
  O  O28  1  0.05461052  0.71400544  0.43255453  1
  O  O29  1  0.43255453  0.05461052  0.71400544  1
  O  O30  1  0.94538948  0.21400544  0.06744547  1
  O  O31  1  0.44538948  0.28599456  0.93255453  1
  Zr  Zr32  1  0.00157210  0.00157210  0.00157210  1
  Zr  Zr33  1  0.49842790  0.99842790  0.50157210  1
  Zr  Zr34  1  0.50157210  0.49842790  0.99842790  1
  Zr  Zr35  1  0.99842790  0.50157210  0.49842790  1
  W  W36  1  0.65491047  0.84508953  0.15491047  1
  W  W37  1  0.84508953  0.15491047  0.65491047  1
  W  W38  1  0.15491047  0.65491047  0.84508953  1
  W  W39  1  0.34508953  0.34508953  0.34508953  1
  W  W40  1  0.59910408  0.59910408  0.59910408  1
  W  W41  1  0.90089592  0.40089592  0.09910408  1
  W  W42  1  0.09910408  0.90089592  0.40089592  1
  W  W43  1  0.40089592  0.09910408  0.90089592  1
