# generated using pymatgen
data_Y3CuGeSe7
_symmetry_space_group_name_H-M   'P 1'
_cell_length_a   10.34170310
_cell_length_b   10.34170310
_cell_length_c   6.15214256
_cell_angle_alpha   90.00000000
_cell_angle_beta   90.00000000
_cell_angle_gamma   120.00000001
_symmetry_Int_Tables_number   1
_chemical_formula_structural   Y3CuGeSe7
_chemical_formula_sum   'Y6 Cu2 Ge2 Se14'
_cell_volume   569.82454582
_cell_formula_units_Z   2
loop_
 _symmetry_equiv_pos_site_id
 _symmetry_equiv_pos_as_xyz
  1  'x, y, z'
loop_
 _atom_site_type_symbol
 _atom_site_label
 _atom_site_symmetry_multiplicity
 _atom_site_fract_x
 _atom_site_fract_y
 _atom_site_fract_z
 _atom_site_occupancy
  Cu  Cu0  1  0.00000000  0.00000000  0.69226902  1
  Cu  Cu1  1  0.00000000  0.00000000  0.19226902  1
  Ge  Ge2  1  0.66666667  0.33333333  0.83421866  1
  Ge  Ge3  1  0.33333333  0.66666667  0.33421866  1
  Se  Se4  1  0.57461012  0.48170220  0.00055102  1
  Se  Se5  1  0.48170220  0.90709208  0.50055102  1
  Se  Se6  1  0.90709208  0.42538988  0.00055102  1
  Se  Se7  1  0.09290792  0.57461012  0.50055102  1
  Se  Se8  1  0.51829780  0.09290792  0.00055102  1
  Se  Se9  1  0.42538988  0.51829780  0.50055102  1
  Se  Se10  1  0.33333333  0.66666667  0.94904338  1
  Se  Se11  1  0.66666667  0.33333333  0.44904338  1
  Se  Se12  1  0.84118347  0.10368600  0.71000507  1
  Se  Se13  1  0.73749747  0.84118347  0.21000507  1
  Se  Se14  1  0.10368600  0.26250253  0.21000507  1
  Se  Se15  1  0.89631400  0.73749747  0.71000507  1
  Se  Se16  1  0.26250253  0.15881653  0.71000507  1
  Se  Se17  1  0.15881653  0.89631400  0.21000507  1
  Y  Y18  1  0.86328493  0.64384940  0.25126690  1
  Y  Y19  1  0.21943553  0.86328493  0.75126690  1
  Y  Y20  1  0.64384940  0.78056447  0.75126690  1
  Y  Y21  1  0.35615060  0.21943553  0.25126690  1
  Y  Y22  1  0.78056447  0.13671507  0.25126690  1
  Y  Y23  1  0.13671507  0.35615060  0.75126690  1
