# generated using pymatgen
data_LiV5O7F
_symmetry_space_group_name_H-M   'P 1'
_cell_length_a   6.14590153
_cell_length_b   6.14590153
_cell_length_c   6.01960477
_cell_angle_alpha   59.30348808
_cell_angle_beta   59.30348808
_cell_angle_gamma   60.00000000
_symmetry_Int_Tables_number   1
_chemical_formula_structural   LiV5O7F
_chemical_formula_sum   'Li1 V5 O7 F1'
_cell_volume   159.06362648
_cell_formula_units_Z   1
loop_
 _symmetry_equiv_pos_site_id
 _symmetry_equiv_pos_as_xyz
  1  'x, y, z'
loop_
 _atom_site_type_symbol
 _atom_site_label
 _atom_site_symmetry_multiplicity
 _atom_site_fract_x
 _atom_site_fract_y
 _atom_site_fract_z
 _atom_site_occupancy
  Li  Li0  1  0.24154645  0.24154645  0.27536164  1
  V  V1  1  0.00924244  0.00924244  0.97227368  1
  V  V2  1  0.62006162  0.62006162  0.13981514  1
  V  V3  1  0.63210011  0.12884127  0.60695751  1
  V  V4  1  0.12884127  0.63210011  0.60695751  1
  V  V5  1  0.63210011  0.63210011  0.60695751  1
  O  O6  1  0.84330926  0.37486319  0.40696437  1
  O  O7  1  0.37486319  0.37486319  0.40696437  1
  O  O8  1  0.37486319  0.84330926  0.40696437  1
  O  O9  1  0.87309512  0.87309512  0.38071363  1
  O  O10  1  0.86834705  0.40414479  0.85916212  1
  O  O11  1  0.40414479  0.86834705  0.85916212  1
  O  O12  1  0.86834705  0.86834705  0.85916212  1
  F  F13  1  0.37913836  0.37913836  0.86258392  1
