# generated using pymatgen
data_LaF3
_symmetry_space_group_name_H-M   'P 1'
_cell_length_a   7.26073382
_cell_length_b   7.26073382
_cell_length_c   7.16530994
_cell_angle_alpha   90.00000000
_cell_angle_beta   90.00000000
_cell_angle_gamma   119.99999999
_symmetry_Int_Tables_number   1
_chemical_formula_structural   LaF3
_chemical_formula_sum   'La6 F18'
_cell_volume   327.13472321
_cell_formula_units_Z   6
loop_
 _symmetry_equiv_pos_site_id
 _symmetry_equiv_pos_as_xyz
  1  'x, y, z'
loop_
 _atom_site_type_symbol
 _atom_site_label
 _atom_site_symmetry_multiplicity
 _atom_site_fract_x
 _atom_site_fract_y
 _atom_site_fract_z
 _atom_site_occupancy
  F  F0  1  0.00000000  0.00000000  0.75000000  1
  F  F1  1  0.00000000  0.00000000  0.25000000  1
  F  F2  1  0.33333333  0.66666667  0.49924793  1
  F  F3  1  0.66666667  0.33333333  0.99924793  1
  F  F4  1  0.66666667  0.33333333  0.50075207  1
  F  F5  1  0.33333333  0.66666667  0.00075207  1
  F  F6  1  0.34389680  0.00032104  0.16715755  1
  F  F7  1  0.34357575  0.34389680  0.66715755  1
  F  F8  1  0.00032104  0.65642425  0.66715755  1
  F  F9  1  0.99967896  0.34357575  0.16715755  1
  F  F10  1  0.65642425  0.65610320  0.16715755  1
  F  F11  1  0.34357575  0.99967896  0.83284245  1
  F  F12  1  0.65610320  0.65642425  0.83284245  1
  F  F13  1  0.65610320  0.99967896  0.66715755  1
  F  F14  1  0.00032104  0.34389680  0.83284245  1
  F  F15  1  0.99967896  0.65610320  0.33284245  1
  F  F16  1  0.65642425  0.00032104  0.33284245  1
  F  F17  1  0.34389680  0.34357575  0.33284245  1
  La  La18  1  0.67136056  0.67136056  0.50000000  1
  La  La19  1  0.00000000  0.67136056  0.00000000  1
  La  La20  1  0.67136056  0.00000000  0.00000000  1
  La  La21  1  0.32863944  0.00000000  0.50000000  1
  La  La22  1  0.00000000  0.32863944  0.50000000  1
  La  La23  1  0.32863944  0.32863944  0.00000000  1
