# generated using pymatgen
data_CsMnP3HO10
_symmetry_space_group_name_H-M   'P 1'
_cell_length_a   6.33504920
_cell_length_b   6.33504920
_cell_length_c   6.60529801
_cell_angle_alpha   73.45161846
_cell_angle_beta   73.45161841
_cell_angle_gamma   87.74703565
_symmetry_Int_Tables_number   1
_chemical_formula_structural   CsMnP3HO10
_chemical_formula_sum   'Cs1 Mn1 P3 H1 O10'
_cell_volume   243.33165682
_cell_formula_units_Z   1
loop_
 _symmetry_equiv_pos_site_id
 _symmetry_equiv_pos_as_xyz
  1  'x, y, z'
loop_
 _atom_site_type_symbol
 _atom_site_label
 _atom_site_symmetry_multiplicity
 _atom_site_fract_x
 _atom_site_fract_y
 _atom_site_fract_z
 _atom_site_occupancy
  H  H0  1  0.24859650  0.75140325  0.00000031  1
  O  O1  1  0.71721217  0.41188349  0.64183944  1
  O  O2  1  0.58811760  0.28278782  0.35815976  1
  O  O3  1  0.19723228  0.69182465  0.86141287  1
  O  O4  1  0.30817524  0.80276863  0.13858792  1
  O  O5  1  0.68031718  0.01953716  0.02332395  1
  O  O6  1  0.98046311  0.31968273  0.97667550  1
  O  O7  1  0.67431818  0.65362428  0.95833600  1
  O  O8  1  0.30957040  0.41005787  0.64863574  1
  O  O9  1  0.58994165  0.69043007  0.35136527  1
  O  O10  1  0.34637568  0.32568115  0.04166520  1
  P  P11  1  0.56475417  0.43524715  0.49999939  1
  P  P12  1  0.20373489  0.44248524  0.89299596  1
  P  P13  1  0.55751467  0.79626481  0.10700515  1
  Mn  Mn14  1  0.66408296  0.33591805  0.99999997  1
  Cs  Cs15  1  0.99889425  0.00110507  0.49999994  1
