# generated using pymatgen
data_Sr5(SnP3)2
_symmetry_space_group_name_H-M   'P 1'
_cell_length_a   4.16802108
_cell_length_b   12.30717748
_cell_length_c   13.91667242
_cell_angle_alpha   90.00000000
_cell_angle_beta   90.00000000
_cell_angle_gamma   90.00000000
_symmetry_Int_Tables_number   1
_chemical_formula_structural   Sr5(SnP3)2
_chemical_formula_sum   'Sr10 Sn4 P12'
_cell_volume   713.87763294
_cell_formula_units_Z   2
loop_
 _symmetry_equiv_pos_site_id
 _symmetry_equiv_pos_as_xyz
  1  'x, y, z'
loop_
 _atom_site_type_symbol
 _atom_site_label
 _atom_site_symmetry_multiplicity
 _atom_site_fract_x
 _atom_site_fract_y
 _atom_site_fract_z
 _atom_site_occupancy
  P  P0  1  0.00000000  0.63450027  0.30642316  1
  P  P1  1  0.50000000  0.07981513  0.60185046  1
  P  P2  1  0.50000000  0.42018487  0.10185046  1
  P  P3  1  0.50000000  0.57981513  0.89814954  1
  P  P4  1  0.50000000  0.66987000  0.57585948  1
  P  P5  1  0.50000000  0.33013000  0.42414052  1
  P  P6  1  0.50000000  0.16987000  0.92414052  1
  P  P7  1  0.50000000  0.83013000  0.07585948  1
  P  P8  1  0.50000000  0.92018487  0.39814954  1
  P  P9  1  0.00000000  0.86549973  0.80642316  1
  P  P10  1  0.00000000  0.36549973  0.69357684  1
  P  P11  1  0.00000000  0.13450027  0.19357684  1
  Sr  Sr12  1  0.00000000  0.62897565  0.06954817  1
  Sr  Sr13  1  0.00000000  0.61885950  0.74217528  1
  Sr  Sr14  1  0.00000000  0.12897565  0.43045183  1
  Sr  Sr15  1  0.00000000  0.87102435  0.56954817  1
  Sr  Sr16  1  0.00000000  0.50000000  0.50000000  1
  Sr  Sr17  1  0.00000000  0.00000000  0.00000000  1
  Sr  Sr18  1  0.00000000  0.88114050  0.24217528  1
  Sr  Sr19  1  0.00000000  0.11885950  0.75782472  1
  Sr  Sr20  1  0.00000000  0.38114050  0.25782472  1
  Sr  Sr21  1  0.00000000  0.37102435  0.93045183  1
  Sn  Sn22  1  0.50000000  0.28531642  0.60346957  1
  Sn  Sn23  1  0.50000000  0.21468358  0.10346957  1
  Sn  Sn24  1  0.50000000  0.78531642  0.89653043  1
  Sn  Sn25  1  0.50000000  0.71468358  0.39653043  1
