# generated using pymatgen
data_NaLi5N2
_symmetry_space_group_name_H-M   'P 1'
_cell_length_a   3.64771690
_cell_length_b   3.86313649
_cell_length_c   7.34473603
_cell_angle_alpha   99.20843198
_cell_angle_beta   90.00000000
_cell_angle_gamma   90.00000000
_symmetry_Int_Tables_number   1
_chemical_formula_structural   NaLi5N2
_chemical_formula_sum   'Na1 Li5 N2'
_cell_volume   102.16546600
_cell_formula_units_Z   1
loop_
 _symmetry_equiv_pos_site_id
 _symmetry_equiv_pos_as_xyz
  1  'x, y, z'
loop_
 _atom_site_type_symbol
 _atom_site_label
 _atom_site_symmetry_multiplicity
 _atom_site_fract_x
 _atom_site_fract_y
 _atom_site_fract_z
 _atom_site_occupancy
  Na  Na0  1  0.50000000  0.70325151  0.87493430  1
  Li  Li1  1  0.00000000  0.08742630  0.64953438  1
  Li  Li2  1  0.50000000  0.97182946  0.24318139  1
  Li  Li3  1  0.50000000  0.53466946  0.53709270  1
  Li  Li4  1  0.00000000  0.52471677  0.36216059  1
  Li  Li5  1  0.00000000  0.37935320  0.07105880  1
  N  N6  1  0.50000000  0.45790212  0.20199779  1
  N  N7  1  0.00000000  0.58485118  0.64204004  1
