# generated using pymatgen
data_Sr3YRhO6
_symmetry_space_group_name_H-M   'P 1'
_cell_length_a   6.86381015
_cell_length_b   6.86381016
_cell_length_c   6.86381015
_cell_angle_alpha   92.05698183
_cell_angle_beta   92.05698181
_cell_angle_gamma   92.05698183
_symmetry_Int_Tables_number   1
_chemical_formula_structural   Sr3YRhO6
_chemical_formula_sum   'Sr6 Y2 Rh2 O12'
_cell_volume   322.72657184
_cell_formula_units_Z   2
loop_
 _symmetry_equiv_pos_site_id
 _symmetry_equiv_pos_as_xyz
  1  'x, y, z'
loop_
 _atom_site_type_symbol
 _atom_site_label
 _atom_site_symmetry_multiplicity
 _atom_site_fract_x
 _atom_site_fract_y
 _atom_site_fract_z
 _atom_site_occupancy
  O  O0  1  0.79196598  0.59028701  0.45594067  1
  O  O1  1  0.59028701  0.45594067  0.79196598  1
  O  O2  1  0.45594067  0.79196598  0.59028701  1
  O  O3  1  0.04405933  0.90971299  0.70803402  1
  O  O4  1  0.90971299  0.70803402  0.04405933  1
  O  O5  1  0.70803402  0.04405933  0.90971299  1
  O  O6  1  0.20803402  0.40971299  0.54405933  1
  O  O7  1  0.40971299  0.54405933  0.20803402  1
  O  O8  1  0.54405933  0.20803402  0.40971299  1
  O  O9  1  0.95594067  0.09028701  0.29196598  1
  O  O10  1  0.29196598  0.95594067  0.09028701  1
  O  O11  1  0.09028701  0.29196598  0.95594067  1
  Sr  Sr12  1  0.88126413  0.25000000  0.61873587  1
  Sr  Sr13  1  0.61873587  0.88126413  0.25000000  1
  Sr  Sr14  1  0.11873587  0.75000000  0.38126413  1
  Sr  Sr15  1  0.75000000  0.38126413  0.11873587  1
  Sr  Sr16  1  0.38126413  0.11873587  0.75000000  1
  Sr  Sr17  1  0.25000000  0.61873587  0.88126413  1
  Y  Y18  1  0.75000000  0.75000000  0.75000000  1
  Y  Y19  1  0.25000000  0.25000000  0.25000000  1
  Rh  Rh20  1  0.50000000  0.50000000  0.50000000  1
  Rh  Rh21  1  0.00000000  0.00000000  0.00000000  1
