# generated using pymatgen
data_Ga2Te3
_symmetry_space_group_name_H-M   'P 1'
_cell_length_a   8.57235809
_cell_length_b   12.80983491
_cell_length_c   7.35948232
_cell_angle_alpha   30.48328296
_cell_angle_beta   54.04150489
_cell_angle_gamma   59.59994053
_symmetry_Int_Tables_number   1
_chemical_formula_structural   Ga2Te3
_chemical_formula_sum   'Ga4 Te6'
_cell_volume   331.84160309
_cell_formula_units_Z   2
loop_
 _symmetry_equiv_pos_site_id
 _symmetry_equiv_pos_as_xyz
  1  'x, y, z'
loop_
 _atom_site_type_symbol
 _atom_site_label
 _atom_site_symmetry_multiplicity
 _atom_site_fract_x
 _atom_site_fract_y
 _atom_site_fract_z
 _atom_site_occupancy
  Ga  Ga0  1  0.12185163  -0.00042178  0.23654787  1
  Ga  Ga1  1  0.12272309  0.66907728  0.25835149  1
  Ga  Ga2  1  0.62185163  0.33375478  0.23528252  1
  Ga  Ga3  1  0.62272309  0.66425672  0.26558232  1
  Te  Te4  1  0.98409260  0.00303306  0.99797808  1
  Te  Te5  1  0.00898807  0.32530368  0.02820891  1
  Te  Te6  1  0.50898807  0.00802932  0.00412095  1
  Te  Te7  1  0.01234461  0.64967857  0.00890795  1
  Te  Te8  1  0.48409260  0.33029994  0.00707728  1
  Te  Te9  1  0.51234461  0.68365543  0.95794265  1
