# generated using pymatgen
data_Rb2LiAsO4
_symmetry_space_group_name_H-M   'P 1'
_cell_length_a   5.91096507
_cell_length_b   6.69776374
_cell_length_c   8.00859434
_cell_angle_alpha   90.00000000
_cell_angle_beta   90.00000000
_cell_angle_gamma   116.18456201
_symmetry_Int_Tables_number   1
_chemical_formula_structural   Rb2LiAsO4
_chemical_formula_sum   'Rb4 Li2 As2 O8'
_cell_volume   284.52444931
_cell_formula_units_Z   2
loop_
 _symmetry_equiv_pos_site_id
 _symmetry_equiv_pos_as_xyz
  1  'x, y, z'
loop_
 _atom_site_type_symbol
 _atom_site_label
 _atom_site_symmetry_multiplicity
 _atom_site_fract_x
 _atom_site_fract_y
 _atom_site_fract_z
 _atom_site_occupancy
  Li  Li0  1  0.79598368  0.59196735  0.76942842  1
  Li  Li1  1  0.20401632  0.40803265  0.26942842  1
  O  O2  1  0.40692745  0.28853269  0.16035179  1
  O  O3  1  0.59307255  0.71146731  0.66035179  1
  O  O4  1  0.63401434  0.26802868  0.85520357  1
  O  O5  1  0.36598566  0.73197132  0.35520357  1
  O  O6  1  0.88160524  0.28853269  0.16035179  1
  O  O7  1  0.11839476  0.71146731  0.66035179  1
  O  O8  1  0.16763185  0.33526371  0.52387087  1
  O  O9  1  0.83236815  0.66473629  0.02387087  1
  As  As10  1  0.68933854  0.37867708  0.05536501  1
  As  As11  1  0.31066146  0.62132292  0.55536501  1
  Rb  Rb12  1  0.06076758  0.12153517  0.84937730  1
  Rb  Rb13  1  0.93923242  0.87846483  0.34937730  1
  Rb  Rb14  1  0.60300211  0.20600422  0.49695127  1
  Rb  Rb15  1  0.39699789  0.79399578  0.99695127  1
