# generated using pymatgen
data_Li9Fe5(SiO8)2
_symmetry_space_group_name_H-M   'P 1'
_cell_length_a   5.13901071
_cell_length_b   11.63912369
_cell_length_c   5.08903365
_cell_angle_alpha   90.00000527
_cell_angle_beta   70.56923695
_cell_angle_gamma   90.00000255
_symmetry_Int_Tables_number   1
_chemical_formula_structural   Li9Fe5(SiO8)2
_chemical_formula_sum   'Li9 Fe5 Si2 O16'
_cell_volume   287.05635636
_cell_formula_units_Z   1
loop_
 _symmetry_equiv_pos_site_id
 _symmetry_equiv_pos_as_xyz
  1  'x, y, z'
loop_
 _atom_site_type_symbol
 _atom_site_label
 _atom_site_symmetry_multiplicity
 _atom_site_fract_x
 _atom_site_fract_y
 _atom_site_fract_z
 _atom_site_occupancy
  Li  Li0  1  1.00000000  0.99093240  0.00000000  1
  Li  Li1  1  1.00000000  0.25000198  0.00000000  1
  Li  Li2  1  0.00000000  0.11729273  0.50000000  1
  Li  Li3  1  0.00000000  0.49999802  1.00000000  1
  Li  Li4  1  0.00000000  0.37500000  0.50000000  1
  Li  Li5  1  0.00000000  0.75906760  1.00000000  1
  Li  Li6  1  1.00000000  0.63270727  0.50000000  1
  Li  Li7  1  0.50000000  0.87500000  0.00000000  1
  Li  Li8  1  0.00000000  0.87500000  0.50000000  1
  Fe  Fe9  1  0.50000000  0.11395949  0.00000000  1
  Fe  Fe10  1  0.50000000  0.37500000  0.00000000  1
  Fe  Fe11  1  0.50000000  0.24564756  0.50000000  1
  Fe  Fe12  1  0.50000000  0.63604051  1.00000000  1
  Fe  Fe13  1  0.50000000  0.50435244  0.50000000  1
  Si  Si14  1  0.50000000  0.99191135  0.50000000  1
  Si  Si15  1  0.50000000  0.75808865  0.50000000  1
  O  O16  1  0.28992168  0.00009030  0.27907608  1
  O  O17  1  0.26907335  0.24733733  0.24206514  1
  O  O18  1  0.72141542  0.10836067  0.26998750  1
  O  O19  1  0.73272663  0.37500000  0.25752598  1
  O  O20  1  0.27858458  0.10836067  0.73001250  1
  O  O21  1  0.26907335  0.50266267  0.24206514  1
  O  O22  1  0.71007832  0.00009030  0.72092392  1
  O  O23  1  0.26727337  0.37500000  0.74247402  1
  O  O24  1  0.28992168  0.74990970  0.27907608  1
  O  O25  1  0.72141542  0.64163933  0.26998750  1
  O  O26  1  0.73092665  0.24733733  0.75793486  1
  O  O27  1  0.27858458  0.64163933  0.73001250  1
  O  O28  1  0.73092665  0.50266267  0.75793486  1
  O  O29  1  0.71184716  0.87500000  0.29336596  1
  O  O30  1  0.71007832  0.74990970  0.72092392  1
  O  O31  1  0.28815284  0.87500000  0.70663404  1
