# generated using pymatgen
data_CdCl2
_symmetry_space_group_name_H-M   'P 1'
_cell_length_a   11.76406996
_cell_length_b   4.99535670
_cell_length_c   6.62182024
_cell_angle_alpha   140.38841129
_cell_angle_beta   153.39476544
_cell_angle_gamma   30.38459040
_symmetry_Int_Tables_number   1
_chemical_formula_structural   CdCl2
_chemical_formula_sum   'Cd1 Cl2'
_cell_volume   88.14585069
_cell_formula_units_Z   1
loop_
 _symmetry_equiv_pos_site_id
 _symmetry_equiv_pos_as_xyz
  1  'x, y, z'
loop_
 _atom_site_type_symbol
 _atom_site_label
 _atom_site_symmetry_multiplicity
 _atom_site_fract_x
 _atom_site_fract_y
 _atom_site_fract_z
 _atom_site_occupancy
  Cd  Cd0  1  0.84355540  0.00154118  0.68446581  1
  Cl  Cl1  1  0.83075308  0.23255442  0.16128383  1
  Cl  Cl2  1  0.33855251  0.75951939  0.15300336  1
