# generated using pymatgen
data_NaH9O5
_symmetry_space_group_name_H-M   'P 1'
_cell_length_a   6.38295247
_cell_length_b   6.35649659
_cell_length_c   13.04190332
_cell_angle_alpha   90.00000000
_cell_angle_beta   90.00000000
_cell_angle_gamma   90.00000000
_symmetry_Int_Tables_number   1
_chemical_formula_structural   NaH9O5
_chemical_formula_sum   'Na4 H36 O20'
_cell_volume   529.15195536
_cell_formula_units_Z   4
loop_
 _symmetry_equiv_pos_site_id
 _symmetry_equiv_pos_as_xyz
  1  'x, y, z'
loop_
 _atom_site_type_symbol
 _atom_site_label
 _atom_site_symmetry_multiplicity
 _atom_site_fract_x
 _atom_site_fract_y
 _atom_site_fract_z
 _atom_site_occupancy
  Na  Na0  1  0.50042370  0.74207771  0.50091911  1
  Na  Na1  1  0.00042370  0.75792229  0.49908089  1
  Na  Na2  1  0.49957630  0.24207771  0.99908089  1
  Na  Na3  1  0.99957630  0.25792229  0.00091911  1
  O  O4  1  0.26449876  0.31614018  0.70236839  1
  O  O5  1  0.76449876  0.18385982  0.29763161  1
  O  O6  1  0.73550124  0.81614018  0.79763161  1
  O  O7  1  0.23550124  0.68385982  0.20236839  1
  O  O8  1  0.26053362  0.90675552  0.62073954  1
  O  O9  1  0.76053362  0.59324448  0.37926046  1
  O  O10  1  0.73946638  0.40675552  0.87926046  1
  O  O11  1  0.23946638  0.09324448  0.12073954  1
  O  O12  1  0.23773698  0.47440656  0.51021457  1
  O  O13  1  0.73773698  0.02559344  0.48978543  1
  O  O14  1  0.76226302  0.97440656  0.98978543  1
  O  O15  1  0.26226302  0.52559344  0.01021457  1
  O  O16  1  0.25392510  0.89080567  0.37873920  1
  O  O17  1  0.75392510  0.60919433  0.62126080  1
  O  O18  1  0.74607490  0.39080567  0.12126080  1
  O  O19  1  0.24607490  0.10919433  0.87873920  1
  O  O20  1  0.32262345  0.32399741  0.29964512  1
  O  O21  1  0.82262345  0.17600259  0.70035488  1
  O  O22  1  0.67737655  0.82399741  0.20035488  1
  O  O23  1  0.17737655  0.67600259  0.79964512  1
  H  H24  1  0.41717618  0.32398167  0.70230995  1
  H  H25  1  0.91717618  0.17601833  0.29769005  1
  H  H26  1  0.58282382  0.82398167  0.79769005  1
  H  H27  1  0.08282382  0.67601833  0.20230995  1
  H  H28  1  0.23658395  0.82459097  0.68419048  1
  H  H29  1  0.73658395  0.67540903  0.31580952  1
  H  H30  1  0.76341605  0.32459097  0.81580952  1
  H  H31  1  0.26341605  0.17540903  0.18419048  1
  H  H32  1  0.26818434  0.05545844  0.64441730  1
  H  H33  1  0.76818434  0.44454156  0.35558270  1
  H  H34  1  0.73181566  0.55545844  0.85558270  1
  H  H35  1  0.23181566  0.94454156  0.14441730  1
  H  H36  1  0.24231432  0.39394052  0.57644450  1
  H  H37  1  0.74231432  0.10605948  0.42355550  1
  H  H38  1  0.75768568  0.89394052  0.92355550  1
  H  H39  1  0.25768568  0.60605948  0.07644450  1
  H  H40  1  0.25637673  0.38011354  0.45160132  1
  H  H41  1  0.75637673  0.11988646  0.54839868  1
  H  H42  1  0.74362327  0.88011354  0.04839868  1
  H  H43  1  0.24362327  0.61988646  0.95160132  1
  H  H44  1  0.24846942  0.81267131  0.31096492  1
  H  H45  1  0.74846942  0.68732869  0.68903508  1
  H  H46  1  0.75153058  0.31267131  0.18903508  1
  H  H47  1  0.25153058  0.18732869  0.81096492  1
  H  H48  1  0.27058495  0.03902342  0.36045417  1
  H  H49  1  0.77058495  0.46097658  0.63954583  1
  H  H50  1  0.72941505  0.53902342  0.13954583  1
  H  H51  1  0.22941505  0.96097658  0.86045417  1
  H  H52  1  0.47571799  0.30678063  0.30043566  1
  H  H53  1  0.97571799  0.19321937  0.69956434  1
  H  H54  1  0.52428201  0.80678063  0.19956434  1
  H  H55  1  0.02428201  0.69321937  0.80043566  1
  H  H56  1  0.29282730  0.46607932  0.26470236  1
  H  H57  1  0.79282730  0.03392068  0.73529764  1
  H  H58  1  0.70717270  0.96607932  0.23529764  1
  H  H59  1  0.20717270  0.53392068  0.76470236  1
