# generated using pymatgen
data_Tl2SeO4
_symmetry_space_group_name_H-M   'P 1'
_cell_length_a   6.36091483
_cell_length_b   6.70540517
_cell_length_c   8.21063445
_cell_angle_alpha   90.18464612
_cell_angle_beta   89.90267714
_cell_angle_gamma   121.80828887
_symmetry_Int_Tables_number   1
_chemical_formula_structural   Tl2SeO4
_chemical_formula_sum   'Tl4 Se2 O8'
_cell_volume   297.60772578
_cell_formula_units_Z   2
loop_
 _symmetry_equiv_pos_site_id
 _symmetry_equiv_pos_as_xyz
  1  'x, y, z'
loop_
 _atom_site_type_symbol
 _atom_site_label
 _atom_site_symmetry_multiplicity
 _atom_site_fract_x
 _atom_site_fract_y
 _atom_site_fract_z
 _atom_site_occupancy
  Tl  Tl0  1  0.33460253  0.66480357  0.74143576  1
  Tl  Tl1  1  0.99971904  0.99975987  0.99593979  1
  Tl  Tl2  1  0.66539747  0.33020003  0.24143576  1
  Tl  Tl3  1  0.00028096  0.00004083  0.49593979  1
  Se  Se4  1  0.31180004  0.65632349  0.24299216  1
  Se  Se5  1  0.68819996  0.34452245  0.74299216  1
  O  O6  1  0.12122148  0.76228559  0.23980724  1
  O  O7  1  0.48353883  0.73529364  0.07342888  1
  O  O8  1  0.49409266  0.75745054  0.40709133  1
  O  O9  1  0.12612474  0.35963596  0.25140484  1
  O  O10  1  0.50590734  0.26335688  0.90709133  1
  O  O11  1  0.87877852  0.64106411  0.73980724  1
  O  O12  1  0.51646117  0.25175382  0.57342888  1
  O  O13  1  0.87387526  0.23351022  0.75140484  1
