# generated using pymatgen
data_FeHO2
_symmetry_space_group_name_H-M   'P 1'
_cell_length_a   3.06009053
_cell_length_b   4.48451209
_cell_length_c   5.04316316
_cell_angle_alpha   90.00000000
_cell_angle_beta   90.00000000
_cell_angle_gamma   90.00000000
_symmetry_Int_Tables_number   1
_chemical_formula_structural   FeHO2
_chemical_formula_sum   'Fe2 H2 O4'
_cell_volume   69.20739350
_cell_formula_units_Z   2
loop_
 _symmetry_equiv_pos_site_id
 _symmetry_equiv_pos_as_xyz
  1  'x, y, z'
loop_
 _atom_site_type_symbol
 _atom_site_label
 _atom_site_symmetry_multiplicity
 _atom_site_fract_x
 _atom_site_fract_y
 _atom_site_fract_z
 _atom_site_occupancy
  Fe  Fe0  1  0.00000000  0.72302471  0.01022526  1
  Fe  Fe1  1  0.50000000  0.27697529  0.51022526  1
  O  O2  1  0.00000000  0.99440352  0.36841458  1
  O  O3  1  0.50000000  0.00559648  0.86841458  1
  O  O4  1  0.00000000  0.51015289  0.66161372  1
  O  O5  1  0.50000000  0.48984611  0.16161372  1
  H  H6  1  0.00000000  0.81386457  0.49154544  1
  H  H7  1  0.50000000  0.18613543  0.99154544  1
