# generated using pymatgen
data_KCuO2
_symmetry_space_group_name_H-M   'P 1'
_cell_length_a   4.53734957
_cell_length_b   5.48625938
_cell_length_c   6.25185670
_cell_angle_alpha   90.00000000
_cell_angle_beta   111.27718244
_cell_angle_gamma   90.00000000
_symmetry_Int_Tables_number   1
_chemical_formula_structural   KCuO2
_chemical_formula_sum   'K2 Cu2 O4'
_cell_volume   145.01969581
_cell_formula_units_Z   2
loop_
 _symmetry_equiv_pos_site_id
 _symmetry_equiv_pos_as_xyz
  1  'x, y, z'
loop_
 _atom_site_type_symbol
 _atom_site_label
 _atom_site_symmetry_multiplicity
 _atom_site_fract_x
 _atom_site_fract_y
 _atom_site_fract_z
 _atom_site_occupancy
  O  O0  1  0.89408352  0.50480230  0.78816703  1
  O  O1  1  0.10591648  0.49519770  0.21183297  1
  O  O2  1  0.89408352  0.99519770  0.78816703  1
  O  O3  1  0.10591648  0.00480230  0.21183297  1
  K  K4  1  0.30325473  0.75000000  0.60650947  1
  K  K5  1  0.69674527  0.25000000  0.39349053  1
  Cu  Cu6  1  0.99745299  0.25000000  0.99490597  1
  Cu  Cu7  1  0.00254701  0.75000000  0.00509403  1
