# generated using pymatgen
data_RbVPO5
_symmetry_space_group_name_H-M   'P 1'
_cell_length_a   7.75197911
_cell_length_b   8.02055105
_cell_length_c   8.52077819
_cell_angle_alpha   90.00000000
_cell_angle_beta   90.00000000
_cell_angle_gamma   90.00000000
_symmetry_Int_Tables_number   1
_chemical_formula_structural   RbVPO5
_chemical_formula_sum   'Rb4 V4 P4 O20'
_cell_volume   529.78061258
_cell_formula_units_Z   4
loop_
 _symmetry_equiv_pos_site_id
 _symmetry_equiv_pos_as_xyz
  1  'x, y, z'
loop_
 _atom_site_type_symbol
 _atom_site_label
 _atom_site_symmetry_multiplicity
 _atom_site_fract_x
 _atom_site_fract_y
 _atom_site_fract_z
 _atom_site_occupancy
  Rb  Rb0  1  0.37032096  0.70370626  0.47980809  1
  Rb  Rb1  1  0.12967904  0.20370626  0.52019191  1
  Rb  Rb2  1  0.87032096  0.29629374  0.02019191  1
  Rb  Rb3  1  0.62967904  0.79629374  0.97980809  1
  V  V4  1  0.13723170  0.78579727  0.87266844  1
  V  V5  1  0.63723170  0.21420273  0.62733156  1
  V  V6  1  0.86276830  0.71420273  0.37266844  1
  V  V7  1  0.36276830  0.28579727  0.12733156  1
  P  P8  1  0.87462023  0.57087304  0.65265882  1
  P  P9  1  0.12537977  0.92912696  0.15265882  1
  P  P10  1  0.37462023  0.42912696  0.84734118  1
  P  P11  1  0.62537977  0.07087304  0.34734118  1
  O  O12  1  0.76951997  0.18067072  0.42550341  1
  O  O13  1  0.23048003  0.31932928  0.92550341  1
  O  O14  1  0.18092043  0.91984891  0.73315782  1
  O  O15  1  0.48234330  0.08290507  0.47664527  1
  O  O16  1  0.56287701  0.14351606  0.18860421  1
  O  O17  1  0.93712299  0.64351606  0.81139579  1
  O  O18  1  0.43712299  0.35648394  0.68860421  1
  O  O19  1  0.68768317  0.89191883  0.31676656  1
  O  O20  1  0.98234330  0.91709493  0.02335473  1
  O  O21  1  0.01765670  0.58290507  0.52335473  1
  O  O22  1  0.81907957  0.58015109  0.23315782  1
  O  O23  1  0.26951997  0.81932928  0.07449659  1
  O  O24  1  0.51765670  0.41709493  0.97664527  1
  O  O25  1  0.18768317  0.10808117  0.18323344  1
  O  O26  1  0.31231683  0.60808117  0.81676656  1
  O  O27  1  0.06287701  0.85648394  0.31139579  1
  O  O28  1  0.31907957  0.41984891  0.26684218  1
  O  O29  1  0.68092043  0.08015109  0.76684218  1
  O  O30  1  0.73048003  0.68067072  0.57449659  1
  O  O31  1  0.81231683  0.39191883  0.68323344  1
