# generated using pymatgen
data_SiNiH12(OF)6
_symmetry_space_group_name_H-M   'P 1'
_cell_length_a   6.38817779
_cell_length_b   6.38817725
_cell_length_c   6.38817775
_cell_angle_alpha   96.39313206
_cell_angle_beta   96.39312544
_cell_angle_gamma   96.39312596
_symmetry_Int_Tables_number   1
_chemical_formula_structural   SiNiH12(OF)6
_chemical_formula_sum   'Si1 Ni1 H12 O6 F6'
_cell_volume   255.43251313
_cell_formula_units_Z   1
loop_
 _symmetry_equiv_pos_site_id
 _symmetry_equiv_pos_as_xyz
  1  'x, y, z'
loop_
 _atom_site_type_symbol
 _atom_site_label
 _atom_site_symmetry_multiplicity
 _atom_site_fract_x
 _atom_site_fract_y
 _atom_site_fract_z
 _atom_site_occupancy
  F  F0  1  0.27638316  0.56236615  0.35612705  1
  F  F1  1  0.35612705  0.27638316  0.56236615  1
  F  F2  1  0.43763385  0.64387295  0.72361684  1
  F  F3  1  0.56236615  0.35612705  0.27638316  1
  F  F4  1  0.64387295  0.72361684  0.43763385  1
  F  F5  1  0.72361684  0.43763385  0.64387295  1
  H  H6  1  0.05956346  0.39865847  0.19991451  1
  H  H7  1  0.18327669  0.68934267  0.80231344  1
  H  H8  1  0.19768655  0.81672332  0.31065733  1
  H  H9  1  0.19991451  0.05956346  0.39865847  1
  H  H10  1  0.31065733  0.19768655  0.81672331  1
  H  H11  1  0.39865847  0.19991451  0.05956346  1
  H  H12  1  0.60134153  0.80008549  0.94043654  1
  H  H13  1  0.68934267  0.80231345  0.18327669  1
  H  H14  1  0.80008549  0.94043654  0.60134153  1
  H  H15  1  0.80231345  0.18327668  0.68934267  1
  H  H16  1  0.81672331  0.31065733  0.19768656  1
  H  H17  1  0.94043654  0.60134153  0.80008549  1
  Ni  Ni18  1  0.00000000  0.00000000  0.00000000  1
  O  O19  1  0.05893506  0.70094269  0.87863592  1
  O  O20  1  0.12136408  0.94106494  0.29905731  1
  O  O21  1  0.29905731  0.12136409  0.94106494  1
  O  O22  1  0.70094269  0.87863591  0.05893506  1
  O  O23  1  0.87863592  0.05893506  0.70094269  1
  O  O24  1  0.94106494  0.29905731  0.12136408  1
  Si  Si25  1  0.50000000  0.50000000  0.50000000  1
