# generated using pymatgen
data_NaHO
_symmetry_space_group_name_H-M   'P 1'
_cell_length_a   3.36098519
_cell_length_b   3.81130689
_cell_length_c   3.81130689
_cell_angle_alpha   60.00000000
_cell_angle_beta   55.45923010
_cell_angle_gamma   55.45923010
_symmetry_Int_Tables_number   1
_chemical_formula_structural   NaHO
_chemical_formula_sum   'Na1 H1 O1'
_cell_volume   31.95948166
_cell_formula_units_Z   1
loop_
 _symmetry_equiv_pos_site_id
 _symmetry_equiv_pos_as_xyz
  1  'x, y, z'
loop_
 _atom_site_type_symbol
 _atom_site_label
 _atom_site_symmetry_multiplicity
 _atom_site_fract_x
 _atom_site_fract_y
 _atom_site_fract_z
 _atom_site_occupancy
  Na  Na0  1  0.95790990  0.01402970  0.01402970  1
  H  H1  1  0.16008146  0.61330618  0.61330618  1
  O  O2  1  0.54239063  0.48587012  0.48587012  1
