# generated using pymatgen
data_Sr4LiCu(CO5)2
_symmetry_space_group_name_H-M   'P 1'
_cell_length_a   5.57740018
_cell_length_b   8.39898410
_cell_length_c   5.57740018
_cell_angle_alpha   70.60807458
_cell_angle_beta   90.00000000
_cell_angle_gamma   109.39192542
_symmetry_Int_Tables_number   1
_chemical_formula_structural   Sr4LiCu(CO5)2
_chemical_formula_sum   'Sr4 Li1 Cu1 C2 O10'
_cell_volume   230.67603801
_cell_formula_units_Z   1
loop_
 _symmetry_equiv_pos_site_id
 _symmetry_equiv_pos_as_xyz
  1  'x, y, z'
loop_
 _atom_site_type_symbol
 _atom_site_label
 _atom_site_symmetry_multiplicity
 _atom_site_fract_x
 _atom_site_fract_y
 _atom_site_fract_z
 _atom_site_occupancy
  Sr  Sr0  1  0.11347417  0.22694835  0.38652583  1
  Sr  Sr1  1  0.38652583  0.77305165  0.11347417  1
  Sr  Sr2  1  0.61347417  0.22694835  0.88652583  1
  Sr  Sr3  1  0.88652583  0.77305165  0.61347417  1
  Li  Li4  1  0.00000000  0.00000000  0.00000000  1
  Cu  Cu5  1  0.50000000  0.00000000  0.50000000  1
  C  C6  1  0.76330591  0.52661082  0.23669409  1
  C  C7  1  0.23669409  0.47338918  0.76330591  1
  O  O8  1  0.73653161  0.00318682  0.26346839  1
  O  O9  1  0.26346839  0.99681318  0.26665421  1
  O  O10  1  0.57717109  0.44188761  0.13528348  1
  O  O11  1  0.85166638  0.70333177  0.14833362  1
  O  O12  1  0.86471652  0.44188761  0.42282891  1
  O  O13  1  0.26665421  0.00318682  0.73334579  1
  O  O14  1  0.73334579  0.99681318  0.73653161  1
  O  O15  1  0.42282891  0.55811239  0.57717109  1
  O  O16  1  0.14833362  0.29666823  0.85166638  1
  O  O17  1  0.13528348  0.55811239  0.86471652  1
