# generated using pymatgen
data_SrS3
_symmetry_space_group_name_H-M   'P 1'
_cell_length_a   5.43903290
_cell_length_b   5.43903289
_cell_length_c   7.00896281
_cell_angle_alpha   90.00000000
_cell_angle_beta   90.00000000
_cell_angle_gamma   95.99145600
_symmetry_Int_Tables_number   1
_chemical_formula_structural   SrS3
_chemical_formula_sum   'Sr2 S6'
_cell_volume   206.21406228
_cell_formula_units_Z   2
loop_
 _symmetry_equiv_pos_site_id
 _symmetry_equiv_pos_as_xyz
  1  'x, y, z'
loop_
 _atom_site_type_symbol
 _atom_site_label
 _atom_site_symmetry_multiplicity
 _atom_site_fract_x
 _atom_site_fract_y
 _atom_site_fract_z
 _atom_site_occupancy
  S  S0  1  0.53316721  0.53316721  0.00000000  1
  S  S1  1  0.03316721  0.03316721  0.50000000  1
  S  S2  1  0.19566271  0.52469504  0.85758106  1
  S  S3  1  0.52469504  0.19566271  0.14241894  1
  S  S4  1  0.69566271  0.02469504  0.64241894  1
  S  S5  1  0.02469504  0.69566271  0.35758106  1
  Sr  Sr6  1  0.00257504  0.00257504  0.00000000  1
  Sr  Sr7  1  0.50257504  0.50257504  0.50000000  1
