# generated using pymatgen
data_BaYSi4N7
_symmetry_space_group_name_H-M   'P 1'
_cell_length_a   6.10545420
_cell_length_b   6.10545420
_cell_length_c   9.94432054
_cell_angle_alpha   90.00000000
_cell_angle_beta   90.00000000
_cell_angle_gamma   119.99999999
_symmetry_Int_Tables_number   1
_chemical_formula_structural   BaYSi4N7
_chemical_formula_sum   'Ba2 Y2 Si8 N14'
_cell_volume   321.02710469
_cell_formula_units_Z   2
loop_
 _symmetry_equiv_pos_site_id
 _symmetry_equiv_pos_as_xyz
  1  'x, y, z'
loop_
 _atom_site_type_symbol
 _atom_site_label
 _atom_site_symmetry_multiplicity
 _atom_site_fract_x
 _atom_site_fract_y
 _atom_site_fract_z
 _atom_site_occupancy
  N  N0  1  0.00000000  0.00000000  0.62371183  1
  N  N1  1  0.00000000  0.00000000  0.12371183  1
  N  N2  1  0.15255225  0.30510451  0.87412978  1
  N  N3  1  0.84744775  0.15255225  0.37412978  1
  N  N4  1  0.30510451  0.15255225  0.37412978  1
  N  N5  1  0.69489549  0.84744775  0.87412978  1
  N  N6  1  0.15255225  0.84744775  0.87412978  1
  N  N7  1  0.84744775  0.69489549  0.37412978  1
  N  N8  1  0.97505720  0.48752860  0.59853337  1
  N  N9  1  0.48752860  0.97505720  0.09853337  1
  N  N10  1  0.48752860  0.51247140  0.09853337  1
  N  N11  1  0.51247140  0.48752860  0.59853337  1
  N  N12  1  0.02494280  0.51247140  0.09853337  1
  N  N13  1  0.51247140  0.02494280  0.59853337  1
  Si  Si14  1  0.82561161  0.65122322  0.54607156  1
  Si  Si15  1  0.17438839  0.82561161  0.04607156  1
  Si  Si16  1  0.65122322  0.82561161  0.04607156  1
  Si  Si17  1  0.34877678  0.17438839  0.54607156  1
  Si  Si18  1  0.82561161  0.17438839  0.54607156  1
  Si  Si19  1  0.17438839  0.34877678  0.04607156  1
  Si  Si20  1  0.00000000  0.00000000  0.81483449  1
  Si  Si21  1  0.00000000  0.00000000  0.31483449  1
  Y  Y22  1  0.33333333  0.66666667  0.73624342  1
  Y  Y23  1  0.66666667  0.33333333  0.23624342  1
  Ba  Ba24  1  0.33333333  0.66666667  0.36290613  1
  Ba  Ba25  1  0.66666667  0.33333333  0.86290613  1
