# generated using pymatgen
data_HfMgN2
_symmetry_space_group_name_H-M   'P 1'
_cell_length_a   6.40664758
_cell_length_b   7.43214294
_cell_length_c   4.43598629
_cell_angle_alpha   90.00000000
_cell_angle_beta   90.00000000
_cell_angle_gamma   90.00000000
_symmetry_Int_Tables_number   1
_chemical_formula_structural   HfMgN2
_chemical_formula_sum   'Hf4 Mg4 N8'
_cell_volume   211.22002209
_cell_formula_units_Z   4
loop_
 _symmetry_equiv_pos_site_id
 _symmetry_equiv_pos_as_xyz
  1  'x, y, z'
loop_
 _atom_site_type_symbol
 _atom_site_label
 _atom_site_symmetry_multiplicity
 _atom_site_fract_x
 _atom_site_fract_y
 _atom_site_fract_z
 _atom_site_occupancy
  Hf  Hf0  1  0.58760917  0.36963426  0.94250050  1
  Hf  Hf1  1  0.41239083  0.63036574  0.44250050  1
  Hf  Hf2  1  0.91239083  0.86963426  0.44250050  1
  Hf  Hf3  1  0.08760917  0.13036574  0.94250050  1
  Mg  Mg4  1  0.57834898  0.88134720  0.94250228  1
  Mg  Mg5  1  0.42165102  0.11865280  0.44250228  1
  Mg  Mg6  1  0.92165102  0.38134720  0.44250228  1
  Mg  Mg7  1  0.07834898  0.61865280  0.94250228  1
  N  N8  1  0.57921909  0.38511339  0.44249808  1
  N  N9  1  0.42078091  0.61488661  0.94249808  1
  N  N10  1  0.92078091  0.88511339  0.94249808  1
  N  N11  1  0.07921909  0.11488661  0.44249808  1
  N  N12  1  0.58460824  0.86777771  0.44249913  1
  N  N13  1  0.41539176  0.13222229  0.94249913  1
  N  N14  1  0.91539176  0.36777771  0.94249913  1
  N  N15  1  0.08460824  0.63222229  0.44249913  1
