# generated using pymatgen
data_NaVN2
_symmetry_space_group_name_H-M   'P 1'
_cell_length_a   5.86914647
_cell_length_b   11.92286954
_cell_length_c   6.88384481
_cell_angle_alpha   90.00000000
_cell_angle_beta   90.00000000
_cell_angle_gamma   90.00000000
_symmetry_Int_Tables_number   1
_chemical_formula_structural   NaVN2
_chemical_formula_sum   'Na8 V8 N16'
_cell_volume   481.71127412
_cell_formula_units_Z   8
loop_
 _symmetry_equiv_pos_site_id
 _symmetry_equiv_pos_as_xyz
  1  'x, y, z'
loop_
 _atom_site_type_symbol
 _atom_site_label
 _atom_site_symmetry_multiplicity
 _atom_site_fract_x
 _atom_site_fract_y
 _atom_site_fract_z
 _atom_site_occupancy
  Na  Na0  1  0.00000000  0.82512232  0.42856160  1
  Na  Na1  1  0.50000000  0.67487768  0.57143840  1
  Na  Na2  1  0.00000000  0.67487768  0.92856160  1
  Na  Na3  1  0.50000000  0.82512232  0.07143840  1
  Na  Na4  1  0.50000000  0.32512232  0.42856160  1
  Na  Na5  1  0.00000000  0.17487768  0.57143840  1
  Na  Na6  1  0.50000000  0.17487768  0.92856160  1
  Na  Na7  1  0.00000000  0.32512232  0.07143840  1
  V  V8  1  0.00000000  0.56991881  0.35624902  1
  V  V9  1  0.50000000  0.93008119  0.64375098  1
  V  V10  1  0.00000000  0.93008119  0.85624902  1
  V  V11  1  0.50000000  0.56991881  0.14375098  1
  V  V12  1  0.50000000  0.06991881  0.35624902  1
  V  V13  1  0.00000000  0.43008119  0.64375098  1
  V  V14  1  0.50000000  0.43008119  0.85624902  1
  V  V15  1  0.00000000  0.06991881  0.14375098  1
  N  N16  1  0.00000000  0.91820406  0.11697318  1
  N  N17  1  0.50000000  0.58179594  0.88302682  1
  N  N18  1  0.00000000  0.58179594  0.61697318  1
  N  N19  1  0.50000000  0.91820406  0.38302682  1
  N  N20  1  0.75000000  0.63552683  0.25000000  1
  N  N21  1  0.25000000  0.86447317  0.75000000  1
  N  N22  1  0.75000000  0.86447317  0.75000000  1
  N  N23  1  0.25000000  0.63552683  0.25000000  1
  N  N24  1  0.50000000  0.41820406  0.11697318  1
  N  N25  1  0.00000000  0.08179594  0.88302682  1
  N  N26  1  0.50000000  0.08179594  0.61697318  1
  N  N27  1  0.00000000  0.41820406  0.38302682  1
  N  N28  1  0.25000000  0.13552683  0.25000000  1
  N  N29  1  0.75000000  0.36447317  0.75000000  1
  N  N30  1  0.25000000  0.36447317  0.75000000  1
  N  N31  1  0.75000000  0.13552683  0.25000000  1
