# generated using pymatgen
data_Al(HO)3
_symmetry_space_group_name_H-M   'P 1'
_cell_length_a   4.96907035
_cell_length_b   5.23815073
_cell_length_c   5.18657665
_cell_angle_alpha   68.58678917
_cell_angle_beta   78.21572521
_cell_angle_gamma   59.65958767
_symmetry_Int_Tables_number   1
_chemical_formula_structural   Al(HO)3
_chemical_formula_sum   'Al2 H6 O6'
_cell_volume   108.43489515
_cell_formula_units_Z   2
loop_
 _symmetry_equiv_pos_site_id
 _symmetry_equiv_pos_as_xyz
  1  'x, y, z'
loop_
 _atom_site_type_symbol
 _atom_site_label
 _atom_site_symmetry_multiplicity
 _atom_site_fract_x
 _atom_site_fract_y
 _atom_site_fract_z
 _atom_site_occupancy
  Al  Al0  1  0.66804197  0.65858116  0.99960078  1
  Al  Al1  1  0.35382611  0.30281773  0.00352141  1
  H  H2  1  0.63626165  0.13703286  0.58524525  1
  H  H3  1  0.37245585  0.83135675  0.40910302  1
  H  H4  1  0.99355716  0.26878402  0.76157967  1
  H  H5  1  0.00757964  0.53967000  0.38852597  1
  H  H6  1  0.15485167  0.83882510  0.80361457  1
  H  H7  1  0.85907748  0.09604968  0.21367914  1
  O  O8  1  0.66379924  0.05311868  0.78867015  1
  O  O9  1  0.36135178  0.91227591  0.20414708  1
  O  O10  1  0.01155361  0.44080819  0.77321443  1
  O  O11  1  0.00968011  0.53281055  0.20132276  1
  O  O12  1  0.37456044  0.69055483  0.78093061  1
  O  O13  1  0.64776830  0.26979853  0.21361715  1
