# generated using pymatgen
data_FePO4
_symmetry_space_group_name_H-M   'P 1'
_cell_length_a   5.10349417
_cell_length_b   5.32480979
_cell_length_c   5.10349517
_cell_angle_alpha   61.36563166
_cell_angle_beta   90.00000004
_cell_angle_gamma   61.36562988
_symmetry_Int_Tables_number   1
_chemical_formula_structural   FePO4
_chemical_formula_sum   'Fe1 P1 O4'
_cell_volume   101.98055384
_cell_formula_units_Z   1
loop_
 _symmetry_equiv_pos_site_id
 _symmetry_equiv_pos_as_xyz
  1  'x, y, z'
loop_
 _atom_site_type_symbol
 _atom_site_label
 _atom_site_symmetry_multiplicity
 _atom_site_fract_x
 _atom_site_fract_y
 _atom_site_fract_z
 _atom_site_occupancy
  Fe  Fe0  1  0.00000000  0.00000000  0.00000000  1
  P  P1  1  0.25000000  0.50000000  0.75000000  1
  O  O2  1  0.14215017  0.27501925  0.97998314  1
  O  O3  1  0.58283158  0.27501925  0.74499861  1
  O  O4  1  0.25500139  0.72498075  0.85784983  1
  O  O5  1  0.02001686  0.72498075  0.41716842  1
