# generated using pymatgen
data_LiMgB3(H9N)2
_symmetry_space_group_name_H-M   'P 1'
_cell_length_a   7.69753312
_cell_length_b   7.69736465
_cell_length_c   7.84838437
_cell_angle_alpha   89.99999579
_cell_angle_beta   89.99994516
_cell_angle_gamma   119.99944909
_symmetry_Int_Tables_number   1
_chemical_formula_structural   LiMgB3(H9N)2
_chemical_formula_sum   'Li2 Mg2 B6 H36 N4'
_cell_volume   402.72346421
_cell_formula_units_Z   2
loop_
 _symmetry_equiv_pos_site_id
 _symmetry_equiv_pos_as_xyz
  1  'x, y, z'
loop_
 _atom_site_type_symbol
 _atom_site_label
 _atom_site_symmetry_multiplicity
 _atom_site_fract_x
 _atom_site_fract_y
 _atom_site_fract_z
 _atom_site_occupancy
  Li  Li0  1  0.99999572  0.00000314  0.20810580  1
  Li  Li1  1  0.00000441  0.99999617  0.70810566  1
  Mg  Mg2  1  0.66666538  0.33332126  0.47744634  1
  Mg  Mg3  1  0.33332244  0.66666602  0.97744033  1
  B  B4  1  0.95055931  0.25508684  0.47114700  1
  B  B5  1  0.74491045  0.69546616  0.47115533  1
  B  B6  1  0.30453372  0.04944389  0.47115716  1
  B  B7  1  0.04944113  0.74491328  0.97114697  1
  B  B8  1  0.25508970  0.30453395  0.97115576  1
  B  B9  1  0.69546658  0.95055756  0.97115678  1
  H  H10  1  0.95449476  0.75379322  0.09268060  1
  H  H11  1  0.79929944  0.04551761  0.09268283  1
  H  H12  1  0.24620824  0.20069999  0.09268529  1
  H  H13  1  0.69534612  0.22646106  0.15690388  1
  H  H14  1  0.77354921  0.46890271  0.15691760  1
  H  H15  1  0.53111251  0.30466298  0.15691985  1
  H  H16  1  0.31819020  0.78217028  0.29755829  1
  H  H17  1  0.21770415  0.53595561  0.29761468  1
  H  H18  1  0.46394938  0.68180055  0.29759232  1
  H  H19  1  0.01644452  0.23416714  0.33539120  1
  H  H20  1  0.21772977  0.98356740  0.33539517  1
  H  H21  1  0.76582786  0.78226979  0.33539508  1
  H  H22  1  0.97422130  0.42613503  0.47177617  1
  H  H23  1  0.45191574  0.02577922  0.47178312  1
  H  H24  1  0.57386171  0.54807589  0.47178785  1
  H  H25  1  0.77307789  0.12631776  0.48514357  1
  H  H26  1  0.87367230  0.64675262  0.48515250  1
  H  H27  1  0.35325409  0.22692532  0.48516170  1
  H  H28  1  0.04550628  0.24620807  0.59268081  1
  H  H29  1  0.20070104  0.95448403  0.59268345  1
  H  H30  1  0.75379274  0.79929997  0.59268556  1
  H  H31  1  0.30465560  0.77353878  0.65690477  1
  H  H32  1  0.22644660  0.53109219  0.65691590  1
  H  H33  1  0.46888409  0.69533458  0.65692026  1
  H  H34  1  0.68181086  0.21782800  0.79755843  1
  H  H35  1  0.78229619  0.46404349  0.79761442  1
  H  H36  1  0.53605301  0.31820019  0.79759259  1
  H  H37  1  0.98355591  0.76583280  0.83539115  1
  H  H38  1  0.78227145  0.01643362  0.83539548  1
  H  H39  1  0.23417165  0.21773136  0.83539532  1
  H  H40  1  0.02577975  0.57386518  0.97177633  1
  H  H41  1  0.54808422  0.97422123  0.97178216  1
  H  H42  1  0.42613830  0.45192481  0.97178718  1
  H  H43  1  0.22692298  0.87368217  0.98514349  1
  H  H44  1  0.12632736  0.35324672  0.98515350  1
  H  H45  1  0.64674723  0.77307589  0.98516240  1
  N  N46  1  0.66666878  0.33334135  0.20651954  1
  N  N47  1  0.33338160  0.66682368  0.24812805  1
  N  N48  1  0.33334049  0.66666459  0.70651999  1
  N  N49  1  0.66661881  0.33317986  0.74812938  1
