# generated using pymatgen
data_BaSi3SnO9
_symmetry_space_group_name_H-M   'P 1'
_cell_length_a   6.83229765
_cell_length_b   6.83229765
_cell_length_c   9.99143842
_cell_angle_alpha   90.00000000
_cell_angle_beta   90.00000000
_cell_angle_gamma   120.00000004
_symmetry_Int_Tables_number   1
_chemical_formula_structural   BaSi3SnO9
_chemical_formula_sum   'Ba2 Si6 Sn2 O18'
_cell_volume   403.91706693
_cell_formula_units_Z   2
loop_
 _symmetry_equiv_pos_site_id
 _symmetry_equiv_pos_as_xyz
  1  'x, y, z'
loop_
 _atom_site_type_symbol
 _atom_site_label
 _atom_site_symmetry_multiplicity
 _atom_site_fract_x
 _atom_site_fract_y
 _atom_site_fract_z
 _atom_site_occupancy
  O  O0  1  0.58083556  0.92439974  0.61428875  1
  O  O1  1  0.07560026  0.41916444  0.38571125  1
  O  O2  1  0.07560026  0.65643583  0.61428875  1
  O  O3  1  0.34356417  0.41916444  0.61428875  1
  O  O4  1  0.07560026  0.65643583  0.88571125  1
  O  O5  1  0.34356417  0.41916444  0.88571125  1
  O  O6  1  0.58083556  0.92439974  0.88571125  1
  O  O7  1  0.34356417  0.92439974  0.11428875  1
  O  O8  1  0.58083556  0.65643583  0.11428875  1
  O  O9  1  0.58083556  0.65643583  0.38571125  1
  O  O10  1  0.24909731  0.19292414  0.25000000  1
  O  O11  1  0.94382684  0.75090269  0.25000000  1
  O  O12  1  0.80707586  0.05617316  0.25000000  1
  O  O13  1  0.80707586  0.75090269  0.75000000  1
  O  O14  1  0.94382684  0.19292414  0.75000000  1
  O  O15  1  0.24909731  0.05617316  0.75000000  1
  O  O16  1  0.07560026  0.41916444  0.11428875  1
  O  O17  1  0.34356417  0.92439974  0.38571125  1
  Si  Si18  1  0.06456420  0.78219385  0.75000000  1
  Si  Si19  1  0.21780615  0.28237034  0.75000000  1
  Si  Si20  1  0.71762966  0.93543580  0.75000000  1
  Si  Si21  1  0.71762966  0.78219385  0.25000000  1
  Si  Si22  1  0.21780615  0.93543580  0.25000000  1
  Si  Si23  1  0.06456420  0.28237034  0.25000000  1
  Sn  Sn24  1  0.33333333  0.66666667  0.50000000  1
  Sn  Sn25  1  0.33333333  0.66666667  0.00000000  1
  Ba  Ba26  1  0.66666667  0.33333333  0.50000000  1
  Ba  Ba27  1  0.66666667  0.33333333  0.00000000  1
