# generated using pymatgen
data_BeH8SO8
_symmetry_space_group_name_H-M   'P 1'
_cell_length_a   7.90431505
_cell_length_b   7.90431504
_cell_length_c   7.90431504
_cell_angle_alpha   91.55142806
_cell_angle_beta   119.10836154
_cell_angle_gamma   119.10836153
_symmetry_Int_Tables_number   1
_chemical_formula_structural   BeH8SO8
_chemical_formula_sum   'Be2 H16 S2 O16'
_cell_volume   353.76870410
_cell_formula_units_Z   2
loop_
 _symmetry_equiv_pos_site_id
 _symmetry_equiv_pos_as_xyz
  1  'x, y, z'
loop_
 _atom_site_type_symbol
 _atom_site_label
 _atom_site_symmetry_multiplicity
 _atom_site_fract_x
 _atom_site_fract_y
 _atom_site_fract_z
 _atom_site_occupancy
  H  H0  1  0.15824881  0.91935564  0.51063679  1
  H  H1  1  0.69111016  0.59230565  0.36259229  1
  H  H2  1  0.84175119  0.35238798  0.76110682  1
  H  H3  1  0.40871885  0.48936321  0.64761202  1
  H  H4  1  0.59128115  0.23889318  0.08064436  1
  H  H5  1  0.59128115  0.85238798  0.01063679  1
  H  H6  1  0.84175119  0.98936321  0.58064436  1
  H  H7  1  0.15824881  0.73889318  0.14761202  1
  H  H8  1  0.40871885  0.41935564  0.26110682  1
  H  H9  1  0.22971336  0.09230565  0.40119549  1
  H  H10  1  0.77028664  0.17148213  0.86259229  1
  H  H11  1  0.69111016  0.59880451  0.82851787  1
  H  H12  1  0.30888984  0.13740771  0.90769435  1
  H  H13  1  0.30888984  0.67148213  0.90119549  1
  H  H14  1  0.77028664  0.09880451  0.40769435  1
  H  H15  1  0.22971336  0.63740771  0.32851787  1
  Be  Be16  1  0.50000000  0.75000000  0.25000000  1
  Be  Be17  1  0.50000000  0.25000000  0.75000000  1
  O  O18  1  0.21292759  0.55202151  0.50782234  1
  O  O19  1  0.25864625  0.06887886  0.53450574  1
  O  O20  1  0.46562689  0.18976740  0.93112114  1
  O  O21  1  0.46562689  0.77585949  0.03450574  1
  O  O22  1  0.74135375  0.96549426  0.43112114  1
  O  O23  1  0.25864625  0.68976740  0.22414051  1
  O  O24  1  0.53437311  0.56887886  0.31023260  1
  O  O25  1  0.95580082  0.66090608  0.44797849  1
  O  O26  1  0.04419918  0.49217766  0.70510526  1
  O  O27  1  0.74135375  0.27585949  0.81023260  1
  O  O28  1  0.78707241  0.29489474  0.33909392  1
  O  O29  1  0.78707241  0.99217766  0.94797849  1
  O  O30  1  0.04419918  0.05202151  0.83909392  1
  O  O31  1  0.95580082  0.79489474  0.00782234  1
  O  O32  1  0.21292759  0.16090608  0.20510526  1
  O  O33  1  0.53437311  0.46549426  0.72414051  1
  S  S34  1  0.00000000  0.00000000  0.00000000  1
  S  S35  1  0.00000000  0.50000000  0.50000000  1
