# generated using pymatgen
data_LiNbZnO4
_symmetry_space_group_name_H-M   'P 1'
_cell_length_a   6.17185224
_cell_length_b   6.17185224
_cell_length_c   8.50539275
_cell_angle_alpha   90.00000000
_cell_angle_beta   90.00000000
_cell_angle_gamma   90.00000000
_symmetry_Int_Tables_number   1
_chemical_formula_structural   LiNbZnO4
_chemical_formula_sum   'Li4 Nb4 Zn4 O16'
_cell_volume   323.98537995
_cell_formula_units_Z   4
loop_
 _symmetry_equiv_pos_site_id
 _symmetry_equiv_pos_as_xyz
  1  'x, y, z'
loop_
 _atom_site_type_symbol
 _atom_site_label
 _atom_site_symmetry_multiplicity
 _atom_site_fract_x
 _atom_site_fract_y
 _atom_site_fract_z
 _atom_site_occupancy
  Li  Li0  1  0.21942448  0.00000000  0.25000000  1
  Li  Li1  1  0.00000000  0.21942448  0.00000000  1
  Li  Li2  1  0.00000000  0.78057552  0.50000000  1
  Li  Li3  1  0.78057552  0.00000000  0.75000000  1
  O  O4  1  0.26583877  0.51736956  0.48354041  1
  O  O5  1  0.51736956  0.73416123  0.73354041  1
  O  O6  1  0.48263044  0.26583877  0.23354041  1
  O  O7  1  0.73416123  0.51736956  0.51645959  1
  O  O8  1  0.73416123  0.48263044  0.98354041  1
  O  O9  1  0.01664038  0.73669342  0.24675095  1
  O  O10  1  0.48263044  0.73416123  0.26645959  1
  O  O11  1  0.51736956  0.26583877  0.76645959  1
  O  O12  1  0.26330658  0.01664038  0.99675095  1
  O  O13  1  0.98335962  0.26330658  0.74675095  1
  O  O14  1  0.73669342  0.01664038  0.00324905  1
  O  O15  1  0.26330658  0.98335962  0.50324905  1
  O  O16  1  0.98335962  0.73669342  0.75324905  1
  O  O17  1  0.73669342  0.98335962  0.49675095  1
  O  O18  1  0.01664038  0.26330658  0.25324905  1
  O  O19  1  0.26583877  0.48263044  0.01645959  1
  Zn  Zn20  1  0.25910040  0.25910040  0.62500000  1
  Zn  Zn21  1  0.25910040  0.74089960  0.87500000  1
  Zn  Zn22  1  0.74089960  0.74089960  0.12500000  1
  Zn  Zn23  1  0.74089960  0.25910040  0.37500000  1
  Nb  Nb24  1  0.78683188  0.50000000  0.75000000  1
  Nb  Nb25  1  0.21316812  0.50000000  0.25000000  1
  Nb  Nb26  1  0.50000000  0.78683188  0.50000000  1
  Nb  Nb27  1  0.50000000  0.21316812  0.00000000  1
