# generated using pymatgen
data_Li2H2SeO5
_symmetry_space_group_name_H-M   'P 1'
_cell_length_a   5.07095209
_cell_length_b   5.72311132
_cell_length_c   8.58615612
_cell_angle_alpha   107.21896764
_cell_angle_beta   90.00000000
_cell_angle_gamma   90.00000000
_symmetry_Int_Tables_number   1
_chemical_formula_structural   Li2H2SeO5
_chemical_formula_sum   'Li4 H4 Se2 O10'
_cell_volume   238.01585695
_cell_formula_units_Z   2
loop_
 _symmetry_equiv_pos_site_id
 _symmetry_equiv_pos_as_xyz
  1  'x, y, z'
loop_
 _atom_site_type_symbol
 _atom_site_label
 _atom_site_symmetry_multiplicity
 _atom_site_fract_x
 _atom_site_fract_y
 _atom_site_fract_z
 _atom_site_occupancy
  H  H0  1  0.78436834  0.00335580  0.94274416  1
  H  H1  1  0.02617254  0.95650197  0.81774705  1
  H  H2  1  0.28436834  0.99664420  0.05725584  1
  H  H3  1  0.52617254  0.04349803  0.18225295  1
  Li  Li4  1  0.41125680  0.43785731  0.10338509  1
  Li  Li5  1  0.89902627  0.31244982  0.49553970  1
  Li  Li6  1  0.91125680  0.56214269  0.89661491  1
  Li  Li7  1  0.39902627  0.68755018  0.50446030  1
  O  O8  1  0.76854754  0.60552619  0.43580063  1
  O  O9  1  0.26854754  0.39447381  0.56419937  1
  O  O10  1  0.44553434  0.09287371  0.09233028  1
  O  O11  1  0.27759963  0.44591394  0.88999635  1
  O  O12  1  0.81265714  0.00737357  0.32560152  1
  O  O13  1  0.31265714  0.99262643  0.67439848  1
  O  O14  1  0.77759963  0.55408606  0.11000365  1
  O  O15  1  0.94553434  0.90712629  0.90766972  1
  O  O16  1  0.22542474  0.67756685  0.28997262  1
  O  O17  1  0.72542474  0.32243315  0.71002738  1
  Se  Se18  1  0.89725266  0.71528818  0.29179634  1
  Se  Se19  1  0.39725266  0.28471182  0.70820366  1
