# generated using pymatgen
data_Si2H2O5
_symmetry_space_group_name_H-M   'P 1'
_cell_length_a   8.79165599
_cell_length_b   8.79165599
_cell_length_c   8.75201722
_cell_angle_alpha   140.31610523
_cell_angle_beta   53.60336174
_cell_angle_gamma   145.54664657
_symmetry_Int_Tables_number   1
_chemical_formula_structural   Si2H2O5
_chemical_formula_sum   'Si4 H4 O10'
_cell_volume   242.78049958
_cell_formula_units_Z   2
loop_
 _symmetry_equiv_pos_site_id
 _symmetry_equiv_pos_as_xyz
  1  'x, y, z'
loop_
 _atom_site_type_symbol
 _atom_site_label
 _atom_site_symmetry_multiplicity
 _atom_site_fract_x
 _atom_site_fract_y
 _atom_site_fract_z
 _atom_site_occupancy
  Si  Si0  1  0.55603505  0.05824275  0.69385111  1
  Si  Si1  1  0.36439165  0.86218395  0.30614889  1
  Si  Si2  1  0.85985438  0.05299889  0.00195198  1
  Si  Si3  1  0.05104691  0.85790240  0.99804802  1
  H  H4  1  0.46821055  0.59747295  0.45216006  1
  H  H5  1  0.14531289  0.01605049  0.54783994  1
  H  H6  1  0.76641113  0.89862771  0.68651762  1
  H  H7  1  0.21211009  0.07989351  0.31348238  1
  O  O8  1  0.50294320  0.00294320  0.50000000  1
  O  O9  1  0.94132245  0.94132245  0.00000000  1
  O  O10  1  0.28586565  0.90674206  0.82226472  1
  O  O11  1  0.08447734  0.46360093  0.17773528  1
  O  O12  1  0.56999739  0.91654853  0.10805394  1
  O  O13  1  0.80849459  0.46194345  0.89194606  1
  O  O14  1  0.62033238  0.84967343  0.56456053  1
  O  O15  1  0.28511290  0.05577185  0.43543947  1
  O  O16  1  0.85284299  0.89963605  0.72569757  1
  O  O17  1  0.17393847  0.12714541  0.27430243  1
