# generated using pymatgen
data_Tb2YbS4
_symmetry_space_group_name_H-M   'P 1'
_cell_length_a   7.23858546
_cell_length_b   7.23858567
_cell_length_c   7.23858581
_cell_angle_alpha   109.42118234
_cell_angle_beta   109.57133714
_cell_angle_gamma   109.42118594
_symmetry_Int_Tables_number   1
_chemical_formula_structural   Tb2YbS4
_chemical_formula_sum   'Tb4 Yb2 S8'
_cell_volume   291.97003493
_cell_formula_units_Z   2
loop_
 _symmetry_equiv_pos_site_id
 _symmetry_equiv_pos_as_xyz
  1  'x, y, z'
loop_
 _atom_site_type_symbol
 _atom_site_label
 _atom_site_symmetry_multiplicity
 _atom_site_fract_x
 _atom_site_fract_y
 _atom_site_fract_z
 _atom_site_occupancy
  Tb  Tb0  1  0.25000000  0.62776077  0.37776077  1
  Tb  Tb1  1  0.62223923  0.37223923  0.25000000  1
  Tb  Tb2  1  0.75000000  0.87223923  0.12223923  1
  Tb  Tb3  1  0.87776077  0.12776077  0.75000000  1
  Yb  Yb4  1  0.12500000  0.75000000  0.87500000  1
  Yb  Yb5  1  0.37500000  0.25000000  0.62500000  1
  S  S6  1  0.99627520  0.85424209  0.49557644  1
  S  S7  1  0.99557644  0.35424209  0.49627520  1
  S  S8  1  0.50372480  0.99930124  0.85796690  1
  S  S9  1  0.14203310  0.14575791  0.14133435  1
  S  S10  1  0.35796690  0.49930124  0.00372480  1
  S  S11  1  0.64133435  0.64575791  0.64203310  1
  S  S12  1  0.50442356  0.00069876  0.35866565  1
  S  S13  1  0.85866565  0.50069876  0.00442356  1
