# generated using pymatgen
data_LiV(OF)2
_symmetry_space_group_name_H-M   'P 1'
_cell_length_a   5.81412637
_cell_length_b   3.89481491
_cell_length_c   6.96826098
_cell_angle_alpha   90.00000000
_cell_angle_beta   101.97911722
_cell_angle_gamma   90.00000000
_symmetry_Int_Tables_number   1
_chemical_formula_structural   LiV(OF)2
_chemical_formula_sum   'Li2 V2 O4 F4'
_cell_volume   154.35962251
_cell_formula_units_Z   2
loop_
 _symmetry_equiv_pos_site_id
 _symmetry_equiv_pos_as_xyz
  1  'x, y, z'
loop_
 _atom_site_type_symbol
 _atom_site_label
 _atom_site_symmetry_multiplicity
 _atom_site_fract_x
 _atom_site_fract_y
 _atom_site_fract_z
 _atom_site_occupancy
  Li  Li0  1  0.31376110  0.28784679  0.83145331  1
  Li  Li1  1  0.68623890  0.78784679  0.16854669  1
  V  V2  1  0.18296575  0.23481806  0.29082052  1
  V  V3  1  0.81703425  0.73481806  0.70917948  1
  O  O4  1  0.10194720  0.72879453  0.80882373  1
  O  O5  1  0.65327995  0.72696189  0.87999005  1
  O  O6  1  0.34672005  0.22696189  0.12000995  1
  O  O7  1  0.89805280  0.22879453  0.19117627  1
  F  F8  1  0.18698597  0.73174157  0.32992832  1
  F  F9  1  0.31035177  0.23083316  0.55997883  1
  F  F10  1  0.68964823  0.73083316  0.44002117  1
  F  F11  1  0.81301403  0.23174157  0.67007168  1
