# generated using pymatgen
data_ErBO3
_symmetry_space_group_name_H-M   'P 1'
_cell_length_a   4.07193322
_cell_length_b   3.91568818
_cell_length_c   8.60604530
_cell_angle_alpha   89.99997069
_cell_angle_beta   90.00000741
_cell_angle_gamma   121.32969616
_symmetry_Int_Tables_number   1
_chemical_formula_structural   ErBO3
_chemical_formula_sum   'Er2 B2 O6'
_cell_volume   117.21051629
_cell_formula_units_Z   2
loop_
 _symmetry_equiv_pos_site_id
 _symmetry_equiv_pos_as_xyz
  1  'x, y, z'
loop_
 _atom_site_type_symbol
 _atom_site_label
 _atom_site_symmetry_multiplicity
 _atom_site_fract_x
 _atom_site_fract_y
 _atom_site_fract_z
 _atom_site_occupancy
  Er  Er0  1  0.05137967  0.00000051  0.99999273  1
  Er  Er1  1  0.05138828  0.00000710  0.50000595  1
  B  B2  1  0.50246168  0.74264376  0.24999822  1
  B  B3  1  0.75975715  0.25736999  0.75000216  1
  O  O4  1  0.33382908  0.65857699  0.10260976  1
  O  O5  1  0.33381861  0.65857420  0.39739030  1
  O  O6  1  0.89590172  0.93378374  0.25000141  1
  O  O7  1  0.67521843  0.34146540  0.60261913  1
  O  O8  1  0.67522288  0.34147302  0.89737998  1
  O  O9  1  0.96202252  0.06620527  0.75000035  1
