# generated using pymatgen
data_Li3Mn2CrO6
_symmetry_space_group_name_H-M   'P 1'
_cell_length_a   15.35428862
_cell_length_b   9.90353980
_cell_length_c   9.90353958
_cell_angle_alpha   17.68147799
_cell_angle_beta   16.80293115
_cell_angle_gamma   16.80293615
_symmetry_Int_Tables_number   1
_chemical_formula_structural   Li3Mn2CrO6
_chemical_formula_sum   'Li3 Mn2 Cr1 O6'
_cell_volume   113.33593917
_cell_formula_units_Z   1
loop_
 _symmetry_equiv_pos_site_id
 _symmetry_equiv_pos_as_xyz
  1  'x, y, z'
loop_
 _atom_site_type_symbol
 _atom_site_label
 _atom_site_symmetry_multiplicity
 _atom_site_fract_x
 _atom_site_fract_y
 _atom_site_fract_z
 _atom_site_occupancy
  Li  Li0  1  0.16666700  0.50000000  0.50000000  1
  Li  Li1  1  0.48681828  0.50942789  0.50942789  1
  Li  Li2  1  0.84651472  0.49057211  0.49057211  1
  Mn  Mn3  1  -0.00011607  0.99756271  0.99756271  1
  Mn  Mn4  1  0.33345007  0.00243729  0.00243729  1
  Cr  Cr5  1  0.66666700  0.00000000  0.00000000  1
  O  O6  1  0.25551014  0.24897416  0.24897416  1
  O  O7  1  0.59239386  0.24778883  0.24778883  1
  O  O8  1  0.07782386  0.75102584  0.75102584  1
  O  O9  1  0.92074283  0.25623352  0.25623352  1
  O  O10  1  0.41259017  0.74376648  0.74376648  1
  O  O11  1  0.74093914  0.75221117  0.75221117  1
