# generated using pymatgen
data_Ag3Ge5P6
_symmetry_space_group_name_H-M   'P 1'
_cell_length_a   9.04424525
_cell_length_b   9.04424525
_cell_length_c   9.04424525
_cell_angle_alpha   109.47122066
_cell_angle_beta   109.47122067
_cell_angle_gamma   109.47122063
_symmetry_Int_Tables_number   1
_chemical_formula_structural   Ag3Ge5P6
_chemical_formula_sum   'Ag6 Ge10 P12'
_cell_volume   569.50179874
_cell_formula_units_Z   2
loop_
 _symmetry_equiv_pos_site_id
 _symmetry_equiv_pos_as_xyz
  1  'x, y, z'
loop_
 _atom_site_type_symbol
 _atom_site_label
 _atom_site_symmetry_multiplicity
 _atom_site_fract_x
 _atom_site_fract_y
 _atom_site_fract_z
 _atom_site_occupancy
  P  P0  1  0.23160798  0.23160798  0.74270567  1
  P  P1  1  0.48890231  0.25729433  0.48890231  1
  P  P2  1  0.25729433  0.48890231  0.48890231  1
  P  P3  1  0.00000000  0.51109769  0.76839202  1
  P  P4  1  0.51109769  0.00000000  0.76839202  1
  P  P5  1  0.76839202  0.00000000  0.51109769  1
  P  P6  1  0.00000000  0.76839202  0.51109769  1
  P  P7  1  0.76839202  0.51109769  0.00000000  1
  P  P8  1  0.51109769  0.76839202  0.00000000  1
  P  P9  1  0.48890231  0.48890231  0.25729433  1
  P  P10  1  0.74270567  0.23160798  0.23160798  1
  P  P11  1  0.23160798  0.74270567  0.23160798  1
  Ge  Ge12  1  0.25000000  0.50000000  0.75000000  1
  Ge  Ge13  1  0.75000000  0.25000000  0.50000000  1
  Ge  Ge14  1  0.25000000  0.75000000  0.50000000  1
  Ge  Ge15  1  0.50000000  0.75000000  0.25000000  1
  Ge  Ge16  1  0.00000000  0.00000000  0.42212427  1
  Ge  Ge17  1  0.00000000  0.42212427  0.00000000  1
  Ge  Ge18  1  0.42212427  0.00000000  0.00000000  1
  Ge  Ge19  1  0.57787573  0.57787573  0.57787573  1
  Ge  Ge20  1  0.50000000  0.25000000  0.75000000  1
  Ge  Ge21  1  0.75000000  0.50000000  0.25000000  1
  Ag  Ag22  1  0.00000000  0.80281450  0.80281450  1
  Ag  Ag23  1  0.80281450  0.80281450  0.00000000  1
  Ag  Ag24  1  0.19718550  0.19718550  0.00000000  1
  Ag  Ag25  1  0.19718550  0.00000000  0.19718550  1
  Ag  Ag26  1  0.80281450  0.00000000  0.80281450  1
  Ag  Ag27  1  0.00000000  0.19718550  0.19718550  1
