# generated using pymatgen
data_K3TaF8
_symmetry_space_group_name_H-M   'P 1'
_cell_length_a   8.42075851
_cell_length_b   8.42075648
_cell_length_c   6.38310126
_cell_angle_alpha   90.00000000
_cell_angle_beta   90.00000000
_cell_angle_gamma   120.01678065
_symmetry_Int_Tables_number   1
_chemical_formula_structural   K3TaF8
_chemical_formula_sum   'K6 Ta2 F16'
_cell_volume   391.91440428
_cell_formula_units_Z   2
loop_
 _symmetry_equiv_pos_site_id
 _symmetry_equiv_pos_as_xyz
  1  'x, y, z'
loop_
 _atom_site_type_symbol
 _atom_site_label
 _atom_site_symmetry_multiplicity
 _atom_site_fract_x
 _atom_site_fract_y
 _atom_site_fract_z
 _atom_site_occupancy
  K  K0  1  0.15318247  0.30625819  0.24656250  1
  K  K1  1  0.84681653  0.69374281  0.74656250  1
  K  K2  1  0.69374281  0.84681753  0.24656250  1
  K  K3  1  0.15313140  0.84686960  0.24651931  1
  K  K4  1  0.84686860  0.15313240  0.74651731  1
  K  K5  1  0.30625719  0.15318247  0.74656250  1
  Ta  Ta6  1  0.33329589  0.66670411  0.73853191  1
  Ta  Ta7  1  0.66670411  0.33329489  0.23853391  1
  F  F8  1  0.00002189  0.99997811  0.00468074  1
  F  F9  1  0.99997711  0.00002289  0.50467874  1
  F  F10  1  0.43628974  0.56371026  0.53425070  1
  F  F11  1  0.56371026  0.43628974  0.03425070  1
  F  F12  1  0.43644010  0.87285076  0.53436148  1
  F  F13  1  0.12714924  0.56356090  0.53436148  1
  F  F14  1  0.87284976  0.43643810  0.03436348  1
  F  F15  1  0.56356190  0.12715024  0.03436348  1
  F  F16  1  0.33323709  0.66676291  0.05076491  1
  F  F17  1  0.66676191  0.33323709  0.55076491  1
  F  F18  1  0.20245541  0.79754659  0.81624529  1
  F  F19  1  0.79754459  0.20245541  0.31624329  1
  F  F20  1  0.20249982  0.40496060  0.81638009  1
  F  F21  1  0.59504040  0.79750018  0.81638009  1
  F  F22  1  0.40495960  0.20249982  0.31638009  1
  F  F23  1  0.79750018  0.59504040  0.31638009  1
