# generated using pymatgen
data_Na2SbAu
_symmetry_space_group_name_H-M   'P 1'
_cell_length_a   5.92943061
_cell_length_b   6.03921343
_cell_length_c   6.03921343
_cell_angle_alpha   102.07586927
_cell_angle_beta   90.00000000
_cell_angle_gamma   90.00000000
_symmetry_Int_Tables_number   1
_chemical_formula_structural   Na2SbAu
_chemical_formula_sum   'Na4 Sb2 Au2'
_cell_volume   211.47328249
_cell_formula_units_Z   2
loop_
 _symmetry_equiv_pos_site_id
 _symmetry_equiv_pos_as_xyz
  1  'x, y, z'
loop_
 _atom_site_type_symbol
 _atom_site_label
 _atom_site_symmetry_multiplicity
 _atom_site_fract_x
 _atom_site_fract_y
 _atom_site_fract_z
 _atom_site_occupancy
  Na  Na0  1  0.25000000  0.65640944  0.01551684  1
  Na  Na1  1  0.75000000  0.34359056  0.98448316  1
  Na  Na2  1  0.25000000  0.01551684  0.65640944  1
  Na  Na3  1  0.75000000  0.98448316  0.34359056  1
  Sb  Sb4  1  0.75000000  0.79812560  0.79812560  1
  Sb  Sb5  1  0.25000000  0.20187440  0.20187440  1
  Au  Au6  1  0.50000000  0.50000000  0.50000000  1
  Au  Au7  1  0.00000000  0.50000000  0.50000000  1
