# generated using pymatgen
data_BaYF5
_symmetry_space_group_name_H-M   'P 1'
_cell_length_a   5.73670022
_cell_length_b   10.29858515
_cell_length_c   8.18318501
_cell_angle_alpha   90.00000000
_cell_angle_beta   88.88485573
_cell_angle_gamma   90.00000000
_symmetry_Int_Tables_number   1
_chemical_formula_structural   BaYF5
_chemical_formula_sum   'Ba4 Y4 F20'
_cell_volume   483.37015005
_cell_formula_units_Z   4
loop_
 _symmetry_equiv_pos_site_id
 _symmetry_equiv_pos_as_xyz
  1  'x, y, z'
loop_
 _atom_site_type_symbol
 _atom_site_label
 _atom_site_symmetry_multiplicity
 _atom_site_fract_x
 _atom_site_fract_y
 _atom_site_fract_z
 _atom_site_occupancy
  Ba  Ba0  1  0.01165285  0.01840143  0.82535163  1
  Ba  Ba1  1  0.50149332  0.34211643  0.63770596  1
  Ba  Ba2  1  0.49850668  0.84211643  0.36229404  1
  Ba  Ba3  1  0.98834715  0.51840143  0.17464837  1
  Y  Y4  1  0.00621040  0.62672241  0.61992125  1
  Y  Y5  1  0.50096624  0.21045783  0.09945455  1
  Y  Y6  1  0.49903376  0.71045783  0.90054545  1
  Y  Y7  1  0.99378960  0.12672241  0.38007875  1
  F  F8  1  0.99132471  0.76803993  0.42215563  1
  F  F9  1  0.21938447  0.55343820  0.83740937  1
  F  F10  1  0.16423010  0.28511060  0.23013177  1
  F  F11  1  0.23929519  0.51315051  0.46465615  1
  F  F12  1  0.26701952  0.22082998  0.89258983  1
  F  F13  1  0.25208475  0.03889404  0.54014975  1
  F  F14  1  0.26980393  0.71166230  0.11694564  1
  F  F15  1  0.34333162  0.74812780  0.65123000  1
  F  F16  1  0.27860657  0.04315083  0.20796747  1
  F  F17  1  0.43532662  0.91839670  0.91082348  1
  F  F18  1  0.56467338  0.41839670  0.08917652  1
  F  F19  1  0.72139343  0.54315083  0.79203253  1
  F  F20  1  0.65666838  0.24812780  0.34877000  1
  F  F21  1  0.73019607  0.21166230  0.88305436  1
  F  F22  1  0.74791525  0.53889404  0.45985025  1
  F  F23  1  0.73298048  0.72082998  0.10741017  1
  F  F24  1  0.76070481  0.01315051  0.53534385  1
  F  F25  1  0.83576990  0.78511060  0.76986823  1
  F  F26  1  0.78061553  0.05343820  0.16259063  1
  F  F27  1  0.00867529  0.26803993  0.57784437  1
