# generated using pymatgen
data_Li3VSiO5
_symmetry_space_group_name_H-M   'P 1'
_cell_length_a   4.94606663
_cell_length_b   5.52986346
_cell_length_c   15.98894439
_cell_angle_alpha   90.00000000
_cell_angle_beta   90.00000000
_cell_angle_gamma   90.00000000
_symmetry_Int_Tables_number   1
_chemical_formula_structural   Li3VSiO5
_chemical_formula_sum   'Li12 V4 Si4 O20'
_cell_volume   437.31478725
_cell_formula_units_Z   4
loop_
 _symmetry_equiv_pos_site_id
 _symmetry_equiv_pos_as_xyz
  1  'x, y, z'
loop_
 _atom_site_type_symbol
 _atom_site_label
 _atom_site_symmetry_multiplicity
 _atom_site_fract_x
 _atom_site_fract_y
 _atom_site_fract_z
 _atom_site_occupancy
  Li  Li0  1  0.00072295  0.66635113  0.59093819  1
  Li  Li1  1  0.00072295  0.16635113  0.90906181  1
  Li  Li2  1  0.50424454  0.33600372  0.99365201  1
  Li  Li3  1  0.50424454  0.83600372  0.50634799  1
  Li  Li4  1  0.50508032  0.32669637  0.80510128  1
  Li  Li5  1  0.50508032  0.82669637  0.69489872  1
  Li  Li6  1  0.50072295  0.33364887  0.40906181  1
  Li  Li7  1  0.50072295  0.83364887  0.09093819  1
  Li  Li8  1  0.00424454  0.66399628  0.00634799  1
  Li  Li9  1  0.00424454  0.16399628  0.49365201  1
  Li  Li10  1  0.00508032  0.17330363  0.30510128  1
  Li  Li11  1  0.00508032  0.67330363  0.19489872  1
  V  V12  1  0.00413584  0.17572703  0.69756953  1
  V  V13  1  0.00413584  0.67572703  0.80243047  1
  V  V14  1  0.50413584  0.32427297  0.19756953  1
  V  V15  1  0.50413584  0.82427297  0.30243047  1
  Si  Si16  1  0.00524872  0.16254823  0.09682309  1
  Si  Si17  1  0.00524872  0.66254823  0.40317691  1
  Si  Si18  1  0.50524872  0.33745177  0.59682309  1
  Si  Si19  1  0.50524872  0.83745177  0.90317691  1
  O  O20  1  0.09597973  0.34043671  0.79821986  1
  O  O21  1  0.09597973  0.84043671  0.70178014  1
  O  O22  1  0.10426699  0.38142255  0.39829558  1
  O  O23  1  0.10426699  0.88142255  0.10170442  1
  O  O24  1  0.10686050  0.31387201  0.01563453  1
  O  O25  1  0.10686050  0.81387201  0.48436547  1
  O  O26  1  0.10339633  0.30817366  0.18550312  1
  O  O27  1  0.10339633  0.80817366  0.31449688  1
  O  O28  1  0.16506509  0.32711698  0.60071358  1
  O  O29  1  0.16506509  0.82711698  0.89928642  1
  O  O30  1  0.59597973  0.65956329  0.20178014  1
  O  O31  1  0.59597973  0.15956329  0.29821986  1
  O  O32  1  0.60426699  0.61857745  0.60170442  1
  O  O33  1  0.60426699  0.11857745  0.89829558  1
  O  O34  1  0.60686050  0.18612799  0.51563453  1
  O  O35  1  0.60686050  0.68612799  0.98436547  1
  O  O36  1  0.60339633  0.19182634  0.68550312  1
  O  O37  1  0.60339633  0.69182634  0.81449688  1
  O  O38  1  0.66506509  0.17288302  0.10071358  1
  O  O39  1  0.66506509  0.67288302  0.39928642  1
