# generated using pymatgen
data_NaTiPCO7
_symmetry_space_group_name_H-M   'P 1'
_cell_length_a   9.13378023
_cell_length_b   6.41872571
_cell_length_c   5.49613798
_cell_angle_alpha   90.00000000
_cell_angle_beta   86.62902270
_cell_angle_gamma   90.00000000
_symmetry_Int_Tables_number   1
_chemical_formula_structural   NaTiPCO7
_chemical_formula_sum   'Na2 Ti2 P2 C2 O14'
_cell_volume   321.66581592
_cell_formula_units_Z   2
loop_
 _symmetry_equiv_pos_site_id
 _symmetry_equiv_pos_as_xyz
  1  'x, y, z'
loop_
 _atom_site_type_symbol
 _atom_site_label
 _atom_site_symmetry_multiplicity
 _atom_site_fract_x
 _atom_site_fract_y
 _atom_site_fract_z
 _atom_site_occupancy
  Na  Na0  1  0.21314077  0.49448643  0.22968696  1
  Na  Na1  1  0.78685923  0.99448643  0.77031304  1
  Ti  Ti2  1  0.34162214  0.76637806  0.78848688  1
  Ti  Ti3  1  0.65837786  0.26637806  0.21151312  1
  P  P4  1  0.44486607  0.25831229  0.73299852  1
  P  P5  1  0.55513393  0.75831229  0.26700148  1
  C  C6  1  0.07993513  0.73833595  0.72066926  1
  C  C7  1  0.92006487  0.23833595  0.27933074  1
  O  O8  1  0.05116110  0.24602398  0.31469062  1
  O  O9  1  0.13892971  0.74389017  0.93846244  1
  O  O10  1  0.18885325  0.72996893  0.54667932  1
  O  O11  1  0.34748047  0.06365395  0.78600921  1
  O  O12  1  0.35156585  0.44954399  0.80287302  1
  O  O13  1  0.41741450  0.74498116  0.11601681  1
  O  O14  1  0.49638009  0.26227410  0.45809376  1
  O  O15  1  0.50361991  0.76227410  0.54190624  1
  O  O16  1  0.58258550  0.24498116  0.88398319  1
  O  O17  1  0.64843415  0.94954399  0.19712698  1
  O  O18  1  0.65251953  0.56365395  0.21399079  1
  O  O19  1  0.81114675  0.22996893  0.45332068  1
  O  O20  1  0.86107029  0.24389017  0.06153756  1
  O  O21  1  0.94883890  0.74602398  0.68530938  1
