# generated using pymatgen
data_RbGa3
_symmetry_space_group_name_H-M   'P 1'
_cell_length_a   6.42554680
_cell_length_b   6.42554680
_cell_length_c   8.85494562
_cell_angle_alpha   111.27363618
_cell_angle_beta   111.27363616
_cell_angle_gamma   89.99999997
_symmetry_Int_Tables_number   1
_chemical_formula_structural   RbGa3
_chemical_formula_sum   'Rb3 Ga9'
_cell_volume   313.80309109
_cell_formula_units_Z   3
loop_
 _symmetry_equiv_pos_site_id
 _symmetry_equiv_pos_as_xyz
  1  'x, y, z'
loop_
 _atom_site_type_symbol
 _atom_site_label
 _atom_site_symmetry_multiplicity
 _atom_site_fract_x
 _atom_site_fract_y
 _atom_site_fract_z
 _atom_site_occupancy
  Ga  Ga0  1  0.50000000  0.50000000  0.00000000  1
  Ga  Ga1  1  0.43072732  0.22324283  0.44648566  1
  Ga  Ga2  1  0.77675717  0.56927268  0.55351434  1
  Ga  Ga3  1  0.77675717  0.98424165  0.55351434  1
  Ga  Ga4  1  0.01575835  0.22324283  0.44648566  1
  Ga  Ga5  1  0.69729680  0.39122837  0.78245674  1
  Ga  Ga6  1  0.60877163  0.30270320  0.21754326  1
  Ga  Ga7  1  0.60877163  0.91484006  0.21754326  1
  Ga  Ga8  1  0.08515994  0.39122837  0.78245674  1
  Rb  Rb9  1  0.00000000  0.00000000  0.00000000  1
  Rb  Rb10  1  0.37208940  0.87208940  0.74417880  1
  Rb  Rb11  1  0.12791060  0.62791060  0.25582120  1
