# generated using pymatgen
data_K5Nb(CN)8
_symmetry_space_group_name_H-M   'P 1'
_cell_length_a   8.04445584
_cell_length_b   8.04445594
_cell_length_c   8.04445543
_cell_angle_alpha   109.05041573
_cell_angle_beta   109.05041604
_cell_angle_gamma   110.31614604
_symmetry_Int_Tables_number   1
_chemical_formula_structural   K5Nb(CN)8
_chemical_formula_sum   'K5 Nb1 C8 N8'
_cell_volume   400.67953548
_cell_formula_units_Z   1
loop_
 _symmetry_equiv_pos_site_id
 _symmetry_equiv_pos_as_xyz
  1  'x, y, z'
loop_
 _atom_site_type_symbol
 _atom_site_label
 _atom_site_symmetry_multiplicity
 _atom_site_fract_x
 _atom_site_fract_y
 _atom_site_fract_z
 _atom_site_occupancy
  K  K0  1  0.33375455  0.47830684  0.60481029  1
  K  K1  1  0.27105574  0.66624545  0.14455229  1
  K  K2  1  0.87349655  0.72894426  0.39518971  1
  K  K3  1  0.52169316  0.12650345  0.85544771  1
  K  K4  1  0.75000000  0.25000000  0.50000000  1
  Nb  Nb5  1  0.00000000  0.00000000  0.00000000  1
  C  C6  1  0.76578521  0.93366365  0.10181773  1
  C  C7  1  0.16605355  0.00693895  0.28777260  1
  C  C8  1  0.83184592  0.66396747  0.89818227  1
  C  C9  1  0.99306105  0.28083364  0.15911460  1
  C  C10  1  0.33603253  0.23421479  0.16787844  1
  C  C11  1  0.12171904  0.83394645  0.84088540  1
  C  C12  1  0.06633635  0.16815408  0.83212155  1
  C  C13  1  0.71916636  0.87828096  0.71222740  1
  N  N14  1  0.98115462  0.42399404  0.24345855  1
  N  N15  1  0.26230393  0.01884538  0.44283942  1
  N  N16  1  0.64592345  0.89433076  0.15745710  1
  N  N17  1  0.73687366  0.48846635  0.84254290  1
  N  N18  1  0.57600596  0.81946451  0.55716058  1
  N  N19  1  0.10566924  0.26312634  0.75159269  1
  N  N20  1  0.18053549  0.73769607  0.75654145  1
  N  N21  1  0.51153365  0.35407655  0.24840731  1
