# generated using pymatgen
data_Li2MnF4
_symmetry_space_group_name_H-M   'P 1'
_cell_length_a   5.23691721
_cell_length_b   3.23813636
_cell_length_c   9.79881538
_cell_angle_alpha   90.07604996
_cell_angle_beta   83.20339388
_cell_angle_gamma   90.05149850
_symmetry_Int_Tables_number   1
_chemical_formula_structural   Li2MnF4
_chemical_formula_sum   'Li4 Mn2 F8'
_cell_volume   164.99893572
_cell_formula_units_Z   2
loop_
 _symmetry_equiv_pos_site_id
 _symmetry_equiv_pos_as_xyz
  1  'x, y, z'
loop_
 _atom_site_type_symbol
 _atom_site_label
 _atom_site_symmetry_multiplicity
 _atom_site_fract_x
 _atom_site_fract_y
 _atom_site_fract_z
 _atom_site_occupancy
  Li  Li0  1  0.26214944  0.96314760  0.07442296  1
  Li  Li1  1  0.23069547  0.96406882  0.42271970  1
  Li  Li2  1  0.73047936  0.03465748  0.92252025  1
  Li  Li3  1  0.76039337  0.03602238  0.57361073  1
  Mn  Mn4  1  0.24613974  0.52539834  0.74895182  1
  Mn  Mn5  1  0.74708120  0.47420015  0.24880437  1
  F  F6  1  0.10840269  0.46292475  0.13505863  1
  F  F7  1  0.11675004  0.02465159  0.62185777  1
  F  F8  1  0.39810206  0.46376610  0.37475381  1
  F  F9  1  0.61811347  0.97354492  0.12188883  1
  F  F10  1  0.37619005  0.02620065  0.87676408  1
  F  F11  1  0.60698747  0.53639387  0.63473568  1
  F  F12  1  0.87684958  0.97468050  0.37644895  1
  F  F13  1  0.89740104  0.53505085  0.87485639  1
