# generated using pymatgen
data_Sr3TeO6
_symmetry_space_group_name_H-M   'P 1'
_cell_length_a   6.06038101
_cell_length_b   6.06038102
_cell_length_c   6.06038130
_cell_angle_alpha   59.59511757
_cell_angle_beta   59.59511753
_cell_angle_gamma   59.59510984
_symmetry_Int_Tables_number   1
_chemical_formula_structural   Sr3TeO6
_chemical_formula_sum   'Sr3 Te1 O6'
_cell_volume   155.94432046
_cell_formula_units_Z   1
loop_
 _symmetry_equiv_pos_site_id
 _symmetry_equiv_pos_as_xyz
  1  'x, y, z'
loop_
 _atom_site_type_symbol
 _atom_site_label
 _atom_site_symmetry_multiplicity
 _atom_site_fract_x
 _atom_site_fract_y
 _atom_site_fract_z
 _atom_site_occupancy
  Sr  Sr0  1  0.64660155  0.64660155  0.64660155  1
  Sr  Sr1  1  0.38144540  0.38144540  0.38144540  1
  Sr  Sr2  1  0.88169160  0.88169160  0.88169160  1
  Te  Te3  1  0.15251451  0.15251451  0.15251451  1
  O  O4  1  0.01500325  0.84736333  0.38057408  1
  O  O5  1  0.46179283  0.94861796  0.28439648  1
  O  O6  1  0.28439648  0.46179283  0.94861796  1
  O  O7  1  0.84736333  0.38057408  0.01500325  1
  O  O8  1  0.38057408  0.01500325  0.84736333  1
  O  O9  1  0.94861796  0.28439648  0.46179283  1
