# generated using pymatgen
data_LiMnPO4
_symmetry_space_group_name_H-M   'P 1'
_cell_length_a   5.54863433
_cell_length_b   6.38927980
_cell_length_c   5.54865789
_cell_angle_alpha   76.41207836
_cell_angle_beta   62.67709031
_cell_angle_gamma   103.58777347
_symmetry_Int_Tables_number   1
_chemical_formula_structural   LiMnPO4
_chemical_formula_sum   'Li2 Mn2 P2 O8'
_cell_volume   155.91720559
_cell_formula_units_Z   2
loop_
 _symmetry_equiv_pos_site_id
 _symmetry_equiv_pos_as_xyz
  1  'x, y, z'
loop_
 _atom_site_type_symbol
 _atom_site_label
 _atom_site_symmetry_multiplicity
 _atom_site_fract_x
 _atom_site_fract_y
 _atom_site_fract_z
 _atom_site_occupancy
  Li  Li0  1  0.81612827  0.24999841  0.81612922  1
  Li  Li1  1  0.56610223  0.74999843  0.56610459  1
  O  O2  1  0.78954803  0.10319069  0.25994561  1
  O  O3  1  0.68650003  0.89684771  0.86306436  1
  O  O4  1  0.19877162  0.90227864  0.75245422  1
  O  O5  1  0.29633256  0.09767801  0.15482877  1
  O  O6  1  0.75245522  0.59772233  0.19877120  1
  O  O7  1  0.25994069  0.39680370  0.78955083  1
  O  O8  1  0.15482892  0.40232260  0.29632996  1
  O  O9  1  0.86306228  0.60315320  0.68650250  1
  P  P10  1  0.87078884  0.75000032  0.87078769  1
  P  P11  1  0.12079451  0.24999740  0.12079506  1
  Mn  Mn12  1  0.43742428  0.25000832  0.43742225  1
  Mn  Mn13  1  0.18732322  0.75000245  0.18731442  1
