# generated using pymatgen
data_BaCO3
_symmetry_space_group_name_H-M   'P 1'
_cell_length_a   4.62171692
_cell_length_b   4.62171652
_cell_length_c   9.14572700
_cell_angle_alpha   69.88458061
_cell_angle_beta   69.88458252
_cell_angle_gamma   71.02263848
_symmetry_Int_Tables_number   1
_chemical_formula_structural   BaCO3
_chemical_formula_sum   'Ba2 C2 O6'
_cell_volume   167.43911846
_cell_formula_units_Z   2
loop_
 _symmetry_equiv_pos_site_id
 _symmetry_equiv_pos_as_xyz
  1  'x, y, z'
loop_
 _atom_site_type_symbol
 _atom_site_label
 _atom_site_symmetry_multiplicity
 _atom_site_fract_x
 _atom_site_fract_y
 _atom_site_fract_z
 _atom_site_occupancy
  Ba  Ba0  1  0.50000000  0.50000000  0.25000000  1
  Ba  Ba1  1  0.50000000  0.50000000  0.75000000  1
  C  C2  1  0.02775403  0.02775403  0.51591231  1
  C  C3  1  0.97224597  0.97224597  0.98408769  1
  O  O4  1  0.10610250  0.68631027  0.05471367  1
  O  O5  1  0.68631027  0.10610250  0.05471367  1
  O  O6  1  0.11679874  0.11679874  0.84295560  1
  O  O7  1  0.31368973  0.89389750  0.44528633  1
  O  O8  1  0.89389750  0.31368973  0.44528633  1
  O  O9  1  0.88320126  0.88320126  0.65704440  1
