# generated using pymatgen
data_SmBS3
_symmetry_space_group_name_H-M   'P 1'
_cell_length_a   7.44541996
_cell_length_b   6.04858350
_cell_length_c   8.87977828
_cell_angle_alpha   90.00000000
_cell_angle_beta   90.00000000
_cell_angle_gamma   90.00000000
_symmetry_Int_Tables_number   1
_chemical_formula_structural   SmBS3
_chemical_formula_sum   'Sm4 B4 S12'
_cell_volume   399.89410457
_cell_formula_units_Z   4
loop_
 _symmetry_equiv_pos_site_id
 _symmetry_equiv_pos_as_xyz
  1  'x, y, z'
loop_
 _atom_site_type_symbol
 _atom_site_label
 _atom_site_symmetry_multiplicity
 _atom_site_fract_x
 _atom_site_fract_y
 _atom_site_fract_z
 _atom_site_occupancy
  Sm  Sm0  1  0.38323585  0.93612592  0.75816601  1
  Sm  Sm1  1  0.88323585  0.56387508  0.75816601  1
  Sm  Sm2  1  0.11676515  0.43612492  0.25816701  1
  Sm  Sm3  1  0.61676315  0.06387508  0.25816701  1
  B  B4  1  0.35493847  0.40084218  0.92800433  1
  B  B5  1  0.64506153  0.59915882  0.42800333  1
  B  B6  1  0.85493847  0.09915782  0.92800433  1
  B  B7  1  0.14506253  0.90084118  0.42800333  1
  S  S8  1  0.17458829  0.66665197  0.55506026  1
  S  S9  1  0.20433767  0.63515138  0.95786431  1
  S  S10  1  0.70433767  0.86484962  0.95786431  1
  S  S11  1  0.29566233  0.13515038  0.45786431  1
  S  S12  1  0.67458829  0.83334703  0.55506026  1
  S  S13  1  0.99750787  0.89145379  0.26700608  1
  S  S14  1  0.00249213  0.10854521  0.76700608  1
  S  S15  1  0.50249213  0.39145479  0.76700608  1
  S  S16  1  0.49750787  0.60854521  0.26700608  1
  S  S17  1  0.82541071  0.33334703  0.05506126  1
  S  S18  1  0.79566333  0.36484962  0.45786431  1
  S  S19  1  0.32541271  0.16665197  0.05506126  1
