# generated using pymatgen
data_LiMoP2O7
_symmetry_space_group_name_H-M   'P 1'
_cell_length_a   5.44521610
_cell_length_b   5.44521610
_cell_length_c   4.62824698
_cell_angle_alpha   81.92583771
_cell_angle_beta   98.07416226
_cell_angle_gamma   76.59036097
_symmetry_Int_Tables_number   1
_chemical_formula_structural   LiMoP2O7
_chemical_formula_sum   'Li1 Mo1 P2 O7'
_cell_volume   130.01428101
_cell_formula_units_Z   1
loop_
 _symmetry_equiv_pos_site_id
 _symmetry_equiv_pos_as_xyz
  1  'x, y, z'
loop_
 _atom_site_type_symbol
 _atom_site_label
 _atom_site_symmetry_multiplicity
 _atom_site_fract_x
 _atom_site_fract_y
 _atom_site_fract_z
 _atom_site_occupancy
  Li  Li0  1  0.74874317  0.74874400  0.99999986  1
  O  O1  1  0.80446112  0.07771698  0.70873044  1
  O  O2  1  0.07771682  0.80446106  0.29127110  1
  O  O3  1  0.35225825  0.84128232  0.78492337  1
  O  O4  1  0.12745088  0.47992192  0.74556218  1
  O  O5  1  0.84128101  0.35225971  0.21507556  1
  O  O6  1  0.47992318  0.12744998  0.25443757  1
  O  O7  1  0.51920314  0.51920434  0.50000058  1
  P  P8  1  0.66541272  0.25435989  0.41259997  1
  P  P9  1  0.25435956  0.66541352  0.58740141  1
  Mo  Mo10  1  0.12403774  0.12403791  0.99999997  1
