# generated using pymatgen
data_H2S
_symmetry_space_group_name_H-M   'P 1'
_cell_length_a   8.83753126
_cell_length_b   8.83753126
_cell_length_c   8.83753126
_cell_angle_alpha   118.69031892
_cell_angle_beta   118.69031892
_cell_angle_gamma   92.28380920
_symmetry_Int_Tables_number   1
_chemical_formula_structural   H2S
_chemical_formula_sum   'H16 S8'
_cell_volume   497.29950018
_cell_formula_units_Z   8
loop_
 _symmetry_equiv_pos_site_id
 _symmetry_equiv_pos_as_xyz
  1  'x, y, z'
loop_
 _atom_site_type_symbol
 _atom_site_label
 _atom_site_symmetry_multiplicity
 _atom_site_fract_x
 _atom_site_fract_y
 _atom_site_fract_z
 _atom_site_occupancy
  H  H0  1  0.12619191  0.83121340  0.85964967  1
  H  H1  1  0.62619191  0.76654223  0.29497850  1
  H  H2  1  0.77843627  0.98345777  0.35964967  1
  H  H3  1  0.27843627  0.91878660  0.79497850  1
  H  H4  1  0.97156373  0.26654223  0.14035033  1
  H  H5  1  0.47156373  0.33121340  0.70502150  1
  H  H6  1  0.62380809  0.41878660  0.64035033  1
  H  H7  1  0.12380809  0.48345777  0.20502150  1
  H  H8  1  0.16878660  0.02843627  0.29497850  1
  H  H9  1  0.23345777  0.52843627  0.85964967  1
  H  H10  1  0.01654223  0.37619191  0.79497850  1
  H  H11  1  0.08121340  0.87619191  0.35964967  1
  H  H12  1  0.73345777  0.87380809  0.70502150  1
  H  H13  1  0.66878660  0.37380809  0.14035033  1
  H  H14  1  0.58121340  0.22156373  0.20502150  1
  H  H15  1  0.51654223  0.72156373  0.64035033  1
  S  S16  1  0.12500000  0.84905732  0.22405732  1
  S  S17  1  0.62500000  0.40094268  0.27594268  1
  S  S18  1  0.12500000  0.34905732  0.72405732  1
  S  S19  1  0.62500000  0.90094268  0.77594268  1
  S  S20  1  0.15094268  0.37500000  0.27594268  1
  S  S21  1  0.59905732  0.87500000  0.22405732  1
  S  S22  1  0.65094268  0.37500000  0.77594268  1
  S  S23  1  0.09905732  0.87500000  0.72405732  1
