# generated using pymatgen
data_LiAsF6
_symmetry_space_group_name_H-M   'P 1'
_cell_length_a   5.34419108
_cell_length_b   5.34419108
_cell_length_c   5.34419108
_cell_angle_alpha   57.51742084
_cell_angle_beta   57.51742085
_cell_angle_gamma   57.51742080
_symmetry_Int_Tables_number   1
_chemical_formula_structural   LiAsF6
_chemical_formula_sum   'Li1 As1 F6'
_cell_volume   101.76533342
_cell_formula_units_Z   1
loop_
 _symmetry_equiv_pos_site_id
 _symmetry_equiv_pos_as_xyz
  1  'x, y, z'
loop_
 _atom_site_type_symbol
 _atom_site_label
 _atom_site_symmetry_multiplicity
 _atom_site_fract_x
 _atom_site_fract_y
 _atom_site_fract_z
 _atom_site_occupancy
  Li  Li0  1  0.50000000  0.50000000  0.50000000  1
  F  F1  1  0.32936835  0.77333386  0.12748540  1
  F  F2  1  0.12748540  0.32936835  0.77333386  1
  F  F3  1  0.77333386  0.12748540  0.32936835  1
  F  F4  1  0.87251460  0.67063165  0.22666614  1
  F  F5  1  0.22666614  0.87251460  0.67063165  1
  F  F6  1  0.67063165  0.22666614  0.87251460  1
  As  As7  1  0.00000000  0.00000000  0.00000000  1
