# generated using pymatgen
data_Rb2PH3SeO8
_symmetry_space_group_name_H-M   'P 1'
_cell_length_a   7.71581691
_cell_length_b   7.85417861
_cell_length_c   7.75168219
_cell_angle_alpha   90.78458508
_cell_angle_beta   100.66625229
_cell_angle_gamma   89.79073734
_symmetry_Int_Tables_number   1
_chemical_formula_structural   Rb2PH3SeO8
_chemical_formula_sum   'Rb4 P2 H6 Se2 O16'
_cell_volume   461.60267586
_cell_formula_units_Z   2
loop_
 _symmetry_equiv_pos_site_id
 _symmetry_equiv_pos_as_xyz
  1  'x, y, z'
loop_
 _atom_site_type_symbol
 _atom_site_label
 _atom_site_symmetry_multiplicity
 _atom_site_fract_x
 _atom_site_fract_y
 _atom_site_fract_z
 _atom_site_occupancy
  Rb  Rb0  1  0.09873951  0.18258854  0.21135541  1
  Rb  Rb1  1  0.38280867  0.68951124  0.27835595  1
  Rb  Rb2  1  0.61719133  0.31048876  0.72164405  1
  Rb  Rb3  1  0.90126049  0.81741146  0.78864459  1
  P  P4  1  0.09462576  0.30596715  0.74438878  1
  P  P5  1  0.90537424  0.69403285  0.25561122  1
  H  H6  1  0.00000000  0.50000000  0.50000000  1
  H  H7  1  0.25676213  0.51730382  0.88203069  1
  H  H8  1  0.22173094  0.09197513  0.62039315  1
  H  H9  1  0.50000000  0.00000000  0.00000000  1
  H  H10  1  0.77826906  0.90802487  0.37960685  1
  H  H11  1  0.74323787  0.48269618  0.11796931  1
  Se  Se12  1  0.39673115  0.80504498  0.74901404  1
  Se  Se13  1  0.60326885  0.19495502  0.25098596  1
  O  O14  1  0.01208600  0.54689939  0.35533819  1
  O  O15  1  0.00956244  0.82111925  0.17479661  1
  O  O16  1  0.23836807  0.39075187  0.89660879  1
  O  O17  1  0.20675535  0.22080026  0.61183907  1
  O  O18  1  0.28731318  0.71959482  0.89359358  1
  O  O19  1  0.25302811  0.89581415  0.58784262  1
  O  O20  1  0.53019230  0.96399544  0.85518277  1
  O  O21  1  0.52518669  0.66806191  0.66776662  1
  O  O22  1  0.47481331  0.33193809  0.33223338  1
  O  O23  1  0.46980770  0.03600456  0.14481723  1
  O  O24  1  0.74697189  0.10418585  0.41215738  1
  O  O25  1  0.71268682  0.28040518  0.10640642  1
  O  O26  1  0.79324465  0.77919974  0.38816093  1
  O  O27  1  0.76163193  0.60924813  0.10339121  1
  O  O28  1  0.99043756  0.17888075  0.82520339  1
  O  O29  1  0.98791400  0.45310061  0.64466181  1
