# generated using pymatgen
data_Li4Al3Si3ClO12
_symmetry_space_group_name_H-M   'P 1'
_cell_length_a   8.53545976
_cell_length_b   8.53545976
_cell_length_c   8.53545976
_cell_angle_alpha   90.00000000
_cell_angle_beta   90.00000000
_cell_angle_gamma   90.00000000
_symmetry_Int_Tables_number   1
_chemical_formula_structural   Li4Al3Si3ClO12
_chemical_formula_sum   'Li8 Al6 Si6 Cl2 O24'
_cell_volume   621.84301113
_cell_formula_units_Z   2
loop_
 _symmetry_equiv_pos_site_id
 _symmetry_equiv_pos_as_xyz
  1  'x, y, z'
loop_
 _atom_site_type_symbol
 _atom_site_label
 _atom_site_symmetry_multiplicity
 _atom_site_fract_x
 _atom_site_fract_y
 _atom_site_fract_z
 _atom_site_occupancy
  Li  Li0  1  0.17411829  0.17411829  0.17411829  1
  Li  Li1  1  0.67411829  0.67411829  0.67411829  1
  Li  Li2  1  0.82588171  0.17411829  0.82588171  1
  Li  Li3  1  0.32588171  0.67411829  0.32588171  1
  Li  Li4  1  0.32588171  0.32588171  0.67411829  1
  Li  Li5  1  0.67411829  0.32588171  0.32588171  1
  Li  Li6  1  0.82588171  0.82588171  0.17411829  1
  Li  Li7  1  0.17411829  0.82588171  0.82588171  1
  O  O8  1  0.64378689  0.90901678  0.63242499  1
  O  O9  1  0.64378689  0.09098322  0.36757501  1
  O  O10  1  0.90901678  0.63242499  0.64378689  1
  O  O11  1  0.09098322  0.63242499  0.35621311  1
  O  O12  1  0.63242499  0.64378689  0.90901678  1
  O  O13  1  0.36757501  0.35621311  0.90901678  1
  O  O14  1  0.85621311  0.86757501  0.40901678  1
  O  O15  1  0.85621311  0.13242499  0.59098322  1
  O  O16  1  0.14378689  0.86757501  0.59098322  1
  O  O17  1  0.13242499  0.59098322  0.85621311  1
  O  O18  1  0.59098322  0.14378689  0.86757501  1
  O  O19  1  0.59098322  0.85621311  0.13242499  1
  O  O20  1  0.86757501  0.40901678  0.85621311  1
  O  O21  1  0.40901678  0.85621311  0.86757501  1
  O  O22  1  0.14378689  0.13242499  0.40901678  1
  O  O23  1  0.35621311  0.90901678  0.36757501  1
  O  O24  1  0.35621311  0.09098322  0.63242499  1
  O  O25  1  0.09098322  0.36757501  0.64378689  1
  O  O26  1  0.90901678  0.36757501  0.35621311  1
  O  O27  1  0.63242499  0.35621311  0.09098322  1
  O  O28  1  0.36757501  0.64378689  0.09098322  1
  O  O29  1  0.40901678  0.14378689  0.13242499  1
  O  O30  1  0.13242499  0.40901678  0.14378689  1
  O  O31  1  0.86757501  0.59098322  0.14378689  1
  Al  Al32  1  0.00000000  0.75000000  0.50000000  1
  Al  Al33  1  0.25000000  0.50000000  0.00000000  1
  Al  Al34  1  0.50000000  0.00000000  0.75000000  1
  Al  Al35  1  0.50000000  0.00000000  0.25000000  1
  Al  Al36  1  0.00000000  0.25000000  0.50000000  1
  Al  Al37  1  0.75000000  0.50000000  0.00000000  1
  Si  Si38  1  0.75000000  0.00000000  0.50000000  1
  Si  Si39  1  0.50000000  0.25000000  0.00000000  1
  Si  Si40  1  0.00000000  0.50000000  0.75000000  1
  Si  Si41  1  0.00000000  0.50000000  0.25000000  1
  Si  Si42  1  0.50000000  0.75000000  0.00000000  1
  Si  Si43  1  0.25000000  0.00000000  0.50000000  1
  Cl  Cl44  1  0.50000000  0.50000000  0.50000000  1
  Cl  Cl45  1  0.00000000  0.00000000  0.00000000  1
