# generated using pymatgen
data_LiPF6
_symmetry_space_group_name_H-M   'P 1'
_cell_length_a   5.17418256
_cell_length_b   5.17418255
_cell_length_c   5.17418255
_cell_angle_alpha   58.06191777
_cell_angle_beta   58.06191773
_cell_angle_gamma   58.06191776
_symmetry_Int_Tables_number   1
_chemical_formula_structural   LiPF6
_chemical_formula_sum   'Li1 P1 F6'
_cell_volume   93.59810562
_cell_formula_units_Z   1
loop_
 _symmetry_equiv_pos_site_id
 _symmetry_equiv_pos_as_xyz
  1  'x, y, z'
loop_
 _atom_site_type_symbol
 _atom_site_label
 _atom_site_symmetry_multiplicity
 _atom_site_fract_x
 _atom_site_fract_y
 _atom_site_fract_z
 _atom_site_occupancy
  Li  Li0  1  0.50000000  0.50000000  0.50000000  1
  F  F1  1  0.30605679  0.78325509  0.13104218  1
  F  F2  1  0.13104218  0.30605679  0.78325509  1
  F  F3  1  0.78325509  0.13104218  0.30605679  1
  F  F4  1  0.86895782  0.69394321  0.21674491  1
  F  F5  1  0.21674491  0.86895782  0.69394321  1
  F  F6  1  0.69394321  0.21674491  0.86895782  1
  P  P7  1  0.00000000  0.00000000  0.00000000  1
