# generated using pymatgen
data_Zn2SnO4
_symmetry_space_group_name_H-M   'P 1'
_cell_length_a   6.21658671
_cell_length_b   6.21658755
_cell_length_c   6.32976975
_cell_angle_alpha   59.39588265
_cell_angle_beta   59.39588229
_cell_angle_gamma   58.74641898
_symmetry_Int_Tables_number   1
_chemical_formula_structural   Zn2SnO4
_chemical_formula_sum   'Zn4 Sn2 O8'
_cell_volume   169.72326552
_cell_formula_units_Z   2
loop_
 _symmetry_equiv_pos_site_id
 _symmetry_equiv_pos_as_xyz
  1  'x, y, z'
loop_
 _atom_site_type_symbol
 _atom_site_label
 _atom_site_symmetry_multiplicity
 _atom_site_fract_x
 _atom_site_fract_y
 _atom_site_fract_z
 _atom_site_occupancy
  O  O0  1  0.39011605  0.39011605  0.37731783  1
  O  O1  1  0.39011605  0.39011605  0.84245007  1
  O  O2  1  0.39135632  0.85744690  0.37559839  1
  O  O3  1  0.85744690  0.39135632  0.37559839  1
  O  O4  1  0.39255310  0.85864368  0.87440161  1
  O  O5  1  0.85864368  0.39255310  0.87440161  1
  O  O6  1  0.85988395  0.85988395  0.40754993  1
  O  O7  1  0.85988395  0.85988395  0.87268217  1
  Sn  Sn8  1  0.62500000  0.62500000  0.12500000  1
  Sn  Sn9  1  0.62500000  0.62500000  0.62500000  1
  Zn  Zn10  1  0.98342163  0.98342163  0.01657837  1
  Zn  Zn11  1  0.26657837  0.26657837  0.23342163  1
  Zn  Zn12  1  0.12500000  0.62500000  0.62500000  1
  Zn  Zn13  1  0.62500000  0.12500000  0.62500000  1
