# generated using pymatgen
data_RbP(HO2)2
_symmetry_space_group_name_H-M   'P 1'
_cell_length_a   6.65356113
_cell_length_b   6.65356114
_cell_length_c   6.60119464
_cell_angle_alpha   108.00080579
_cell_angle_beta   108.00080579
_cell_angle_gamma   112.75576033
_symmetry_Int_Tables_number   1
_chemical_formula_structural   RbP(HO2)2
_chemical_formula_sum   'Rb2 P2 H4 O8'
_cell_volume   223.61235488
_cell_formula_units_Z   2
loop_
 _symmetry_equiv_pos_site_id
 _symmetry_equiv_pos_as_xyz
  1  'x, y, z'
loop_
 _atom_site_type_symbol
 _atom_site_label
 _atom_site_symmetry_multiplicity
 _atom_site_fract_x
 _atom_site_fract_y
 _atom_site_fract_z
 _atom_site_occupancy
  H  H0  1  0.39712491  0.25106925  0.41118626  1
  H  H1  1  0.83988299  0.98593865  0.58881374  1
  H  H2  1  0.00106925  0.64712491  0.91118626  1
  H  H3  1  0.73593865  0.08988299  0.08881374  1
  O  O4  1  0.73289907  0.95628492  0.94918455  1
  O  O5  1  0.00710037  0.78371452  0.05081545  1
  O  O6  1  0.70628492  0.98289907  0.44918455  1
  O  O7  1  0.53371452  0.25710037  0.55081545  1
  O  O8  1  0.20317706  0.25188415  0.23050706  1
  O  O9  1  0.02137709  0.97267000  0.76949294  1
  O  O10  1  0.00188415  0.45317706  0.73050706  1
  O  O11  1  0.72267000  0.27137709  0.26949294  1
  P  P12  1  0.75111896  0.25111896  0.50000000  1
  P  P13  1  0.00111896  0.00111896  0.00000000  1
  Rb  Rb14  1  0.23391956  0.73391956  0.50000000  1
  Rb  Rb15  1  0.48391956  0.48391956  0.00000000  1
