# generated using pymatgen
data_Ti3TeO8
_symmetry_space_group_name_H-M   'P 1'
_cell_length_a   5.49924992
_cell_length_b   7.34273249
_cell_length_c   5.50075163
_cell_angle_alpha   85.62590169
_cell_angle_beta   77.88372417
_cell_angle_gamma   85.97377575
_symmetry_Int_Tables_number   1
_chemical_formula_structural   Ti3TeO8
_chemical_formula_sum   'Ti3 Te1 O8'
_cell_volume   216.20222609
_cell_formula_units_Z   1
loop_
 _symmetry_equiv_pos_site_id
 _symmetry_equiv_pos_as_xyz
  1  'x, y, z'
loop_
 _atom_site_type_symbol
 _atom_site_label
 _atom_site_symmetry_multiplicity
 _atom_site_fract_x
 _atom_site_fract_y
 _atom_site_fract_z
 _atom_site_occupancy
  Ti  Ti0  1  0.11320908  0.11241378  0.00729926  1
  Ti  Ti1  1  0.39351810  0.63192300  0.49413806  1
  Ti  Ti2  1  0.59316044  0.38156788  0.98294357  1
  Te  Te3  1  0.83116875  0.88341404  0.59436957  1
  O  O4  1  0.99533389  0.05778388  0.34718095  1
  O  O5  1  0.05084576  0.67917104  0.48719932  1
  O  O6  1  0.43829419  0.18126890  0.92829984  1
  O  O7  1  0.50404970  0.58109593  0.78772273  1
  O  O8  1  0.48734830  0.43404136  0.30664193  1
  O  O9  1  0.58536824  0.81619397  0.36587816  1
  O  O10  1  0.92568926  0.31245122  0.92226238  1
  O  O11  1  0.08201528  0.92867399  0.82446424  1
