# generated using pymatgen
data_Ca3VN3
_symmetry_space_group_name_H-M   'P 1'
_cell_length_a   5.08656629
_cell_length_b   6.73075622
_cell_length_c   6.73075623
_cell_angle_alpha   101.33373046
_cell_angle_beta   90.00000000
_cell_angle_gamma   90.00000000
_symmetry_Int_Tables_number   1
_chemical_formula_structural   Ca3VN3
_chemical_formula_sum   'Ca6 V2 N6'
_cell_volume   225.94339295
_cell_formula_units_Z   2
loop_
 _symmetry_equiv_pos_site_id
 _symmetry_equiv_pos_as_xyz
  1  'x, y, z'
loop_
 _atom_site_type_symbol
 _atom_site_label
 _atom_site_symmetry_multiplicity
 _atom_site_fract_x
 _atom_site_fract_y
 _atom_site_fract_z
 _atom_site_occupancy
  N  N0  1  0.75000000  0.56919770  0.81670964  1
  N  N1  1  0.25000000  0.43080230  0.18329036  1
  N  N2  1  0.75000000  0.12705431  0.87294569  1
  N  N3  1  0.25000000  0.87294569  0.12705431  1
  N  N4  1  0.75000000  0.18329036  0.43080230  1
  N  N5  1  0.25000000  0.81670964  0.56919770  1
  Ca  Ca6  1  0.75000000  0.82797887  0.59788337  1
  Ca  Ca7  1  0.25000000  0.17202113  0.40211663  1
  Ca  Ca8  1  0.25000000  0.10859195  0.89140805  1
  Ca  Ca9  1  0.75000000  0.89140805  0.10859195  1
  Ca  Ca10  1  0.25000000  0.59788337  0.82797887  1
  Ca  Ca11  1  0.75000000  0.40211663  0.17202113  1
  V  V12  1  0.25000000  0.69753508  0.30246492  1
  V  V13  1  0.75000000  0.30246492  0.69753508  1
