# generated using pymatgen
data_LiAsS2
_symmetry_space_group_name_H-M   'P 1'
_cell_length_a   5.39028995
_cell_length_b   5.43588638
_cell_length_c   6.59025634
_cell_angle_alpha   114.35935457
_cell_angle_beta   111.14855196
_cell_angle_gamma   89.99921174
_symmetry_Int_Tables_number   1
_chemical_formula_structural   LiAsS2
_chemical_formula_sum   'Li2 As2 S4'
_cell_volume   161.52707861
_cell_formula_units_Z   2
loop_
 _symmetry_equiv_pos_site_id
 _symmetry_equiv_pos_as_xyz
  1  'x, y, z'
loop_
 _atom_site_type_symbol
 _atom_site_label
 _atom_site_symmetry_multiplicity
 _atom_site_fract_x
 _atom_site_fract_y
 _atom_site_fract_z
 _atom_site_occupancy
  Li  Li0  1  0.00120205  0.76731225  0.00127198  1
  Li  Li1  1  0.50120341  0.23394928  0.00127337  1
  As  As2  1  0.68275184  0.94341349  0.44254399  1
  As  As3  1  0.18281498  0.49922178  0.44253973  1
  S  S4  1  0.52399369  0.76062271  0.04293653  1
  S  S5  1  0.02401925  0.28221720  0.04294585  1
  S  S6  1  0.28580174  0.96134444  0.52038383  1
  S  S7  1  0.78581303  0.55905885  0.52038472  1
