# generated using pymatgen
data_Li5TiP3
_symmetry_space_group_name_H-M   'P 1'
_cell_length_a   8.23731187
_cell_length_b   12.42568523
_cell_length_c   10.12237703
_cell_angle_alpha   35.18693719
_cell_angle_beta   35.52076248
_cell_angle_gamma   60.15919217
_symmetry_Int_Tables_number   1
_chemical_formula_structural   Li5TiP3
_chemical_formula_sum   'Li10 Ti2 P6'
_cell_volume   300.28463417
_cell_formula_units_Z   2
loop_
 _symmetry_equiv_pos_site_id
 _symmetry_equiv_pos_as_xyz
  1  'x, y, z'
loop_
 _atom_site_type_symbol
 _atom_site_label
 _atom_site_symmetry_multiplicity
 _atom_site_fract_x
 _atom_site_fract_y
 _atom_site_fract_z
 _atom_site_occupancy
  Li  Li0  1  0.52349237  0.34459613  0.22686269  1
  Li  Li1  1  0.48749036  0.65633482  0.25790214  1
  Li  Li2  1  0.99136554  0.34443726  0.23836475  1
  Li  Li3  1  0.51367679  0.34410072  0.73803119  1
  Li  Li4  1  0.48098711  0.99985568  0.26719785  1
  Li  Li5  1  0.99723777  0.65677962  0.26953817  1
  Li  Li6  1  0.47606265  0.65692954  0.76878336  1
  Li  Li7  1  0.00094626  0.34326467  0.72863939  1
  Li  Li8  1  0.51930973  0.00122830  0.72819379  1
  Li  Li9  1  0.00956736  0.65653846  0.75717547  1
  Ti  Ti10  1  0.01549942  0.00115007  0.23213261  1
  Ti  Ti11  1  0.98581616  0.00003071  0.76268516  1
  P  P12  1  0.00027878  0.00059555  0.99785435  1
  P  P13  1  0.50030481  0.00058332  0.99760639  1
  P  P14  1  0.44974299  0.30889851  0.06661580  1
  P  P15  1  0.55116628  0.69255324  0.92821388  1
  P  P16  1  0.01271097  0.30952149  0.00311171  1
  P  P17  1  0.98804966  0.69203294  0.99202831  1
