# generated using pymatgen
data_LiFePO4
_symmetry_space_group_name_H-M   'P 1'
_cell_length_a   5.29077651
_cell_length_b   5.29077680
_cell_length_c   13.12492619
_cell_angle_alpha   90.00000000
_cell_angle_beta   90.00000000
_cell_angle_gamma   119.99999813
_symmetry_Int_Tables_number   1
_chemical_formula_structural   LiFePO4
_chemical_formula_sum   'Li3 Fe3 P3 O12'
_cell_volume   318.17523003
_cell_formula_units_Z   3
loop_
 _symmetry_equiv_pos_site_id
 _symmetry_equiv_pos_as_xyz
  1  'x, y, z'
loop_
 _atom_site_type_symbol
 _atom_site_label
 _atom_site_symmetry_multiplicity
 _atom_site_fract_x
 _atom_site_fract_y
 _atom_site_fract_z
 _atom_site_occupancy
  Li  Li0  1  0.00000000  0.00000000  0.16666700  1
  Li  Li1  1  0.00000000  0.00000000  0.50000000  1
  Li  Li2  1  0.00000000  0.00000000  0.83333300  1
  Fe  Fe3  1  0.00000000  0.50000000  0.66666700  1
  Fe  Fe4  1  0.50000000  0.50000000  0.33333300  1
  Fe  Fe5  1  0.50000000  0.00000000  0.00000000  1
  P  P6  1  0.00000000  0.50000000  0.16666700  1
  P  P7  1  0.50000000  0.50000000  0.83333300  1
  P  P8  1  0.50000000  0.00000000  0.50000000  1
  O  O9  1  0.18092746  0.77671328  0.10056324  1
  O  O10  1  0.22328772  0.81907254  0.56610376  1
  O  O11  1  0.18092746  0.40421517  0.23277076  1
  O  O12  1  0.22328772  0.40421517  0.76722924  1
  O  O13  1  0.59578483  0.77671328  0.89943676  1
  O  O14  1  0.59578483  0.81907254  0.43389624  1
  O  O15  1  0.40421517  0.18092746  0.43389624  1
  O  O16  1  0.40421517  0.22328772  0.89943676  1
  O  O17  1  0.81907254  0.59578483  0.23277076  1
  O  O18  1  0.77671328  0.59578483  0.76722924  1
  O  O19  1  0.81907254  0.22328772  0.10056324  1
  O  O20  1  0.77671328  0.18092746  0.56610376  1
