# generated using pymatgen
data_Cs2LiAsO4
_symmetry_space_group_name_H-M   'P 1'
_cell_length_a   6.06785451
_cell_length_b   6.97818186
_cell_length_c   8.32893207
_cell_angle_alpha   90.00000000
_cell_angle_beta   90.00000000
_cell_angle_gamma   115.77087044
_symmetry_Int_Tables_number   1
_chemical_formula_structural   Cs2LiAsO4
_chemical_formula_sum   'Cs4 Li2 As2 O8'
_cell_volume   317.59213338
_cell_formula_units_Z   2
loop_
 _symmetry_equiv_pos_site_id
 _symmetry_equiv_pos_as_xyz
  1  'x, y, z'
loop_
 _atom_site_type_symbol
 _atom_site_label
 _atom_site_symmetry_multiplicity
 _atom_site_fract_x
 _atom_site_fract_y
 _atom_site_fract_z
 _atom_site_occupancy
  Li  Li0  1  0.79301676  0.58603351  0.76928981  1
  Li  Li1  1  0.20698324  0.41396649  0.26928981  1
  O  O2  1  0.42638823  0.31861689  0.15906387  1
  O  O3  1  0.57361177  0.68138311  0.65906387  1
  O  O4  1  0.63819335  0.27638669  0.86557487  1
  O  O5  1  0.36180665  0.72361331  0.36557487  1
  O  O6  1  0.89222866  0.31861689  0.15906387  1
  O  O7  1  0.10777134  0.68138311  0.65906387  1
  O  O8  1  0.16746588  0.33493177  0.51279450  1
  O  O9  1  0.83253412  0.66506823  0.01279450  1
  As  As10  1  0.69686442  0.39372883  0.05435030  1
  As  As11  1  0.30313558  0.60627117  0.55435030  1
  Cs  Cs12  1  0.06779285  0.13558570  0.85285056  1
  Cs  Cs13  1  0.93220715  0.86441430  0.35285056  1
  Cs  Cs14  1  0.60521131  0.21042262  0.49551222  1
  Cs  Cs15  1  0.39478869  0.78957738  0.99551222  1
