# generated using pymatgen
data_Na4SnO3
_symmetry_space_group_name_H-M   'P 1'
_cell_length_a   5.87917152
_cell_length_b   5.94702592
_cell_length_c   8.92870691
_cell_angle_alpha   83.52458790
_cell_angle_beta   70.77803806
_cell_angle_gamma   69.96777108
_symmetry_Int_Tables_number   1
_chemical_formula_structural   Na4SnO3
_chemical_formula_sum   'Na8 Sn2 O6'
_cell_volume   276.94176723
_cell_formula_units_Z   2
loop_
 _symmetry_equiv_pos_site_id
 _symmetry_equiv_pos_as_xyz
  1  'x, y, z'
loop_
 _atom_site_type_symbol
 _atom_site_label
 _atom_site_symmetry_multiplicity
 _atom_site_fract_x
 _atom_site_fract_y
 _atom_site_fract_z
 _atom_site_occupancy
  O  O0  1  0.04733007  0.97220272  0.32433290  1
  O  O1  1  0.37166297  0.47220272  0.67566710  1
  O  O2  1  0.17748042  0.51239853  0.13312558  1
  O  O3  1  0.31060600  0.01239853  0.86687442  1
  O  O4  1  0.70221827  0.95955862  0.12673270  1
  O  O5  1  0.82895097  0.45955862  0.87326730  1
  Na  Na6  1  0.52416613  0.25002179  0.93260851  1
  Na  Na7  1  0.96269747  0.21860903  0.08607686  1
  Na  Na8  1  0.59900738  0.69358131  0.71728460  1
  Na  Na9  1  0.31629197  0.19358131  0.28271540  1
  Na  Na10  1  0.75574455  0.25170428  0.50746109  1
  Na  Na11  1  0.26320564  0.75170428  0.49253891  1
  Na  Na12  1  0.04877434  0.71860903  0.91392314  1
  Na  Na13  1  0.45677464  0.75002179  0.06739149  1
  Sn  Sn14  1  0.86793904  0.74942372  0.28721111  1
  Sn  Sn15  1  0.15515015  0.24942372  0.71278889  1
