# generated using pymatgen
data_PH6NO4
_symmetry_space_group_name_H-M   'P 1'
_cell_length_a   6.56357675
_cell_length_b   6.56357674
_cell_length_c   6.56357674
_cell_angle_alpha   105.47054943
_cell_angle_beta   111.50783706
_cell_angle_gamma   111.50783695
_symmetry_Int_Tables_number   1
_chemical_formula_structural   PH6NO4
_chemical_formula_sum   'P2 H12 N2 O8'
_cell_volume   216.88190937
_cell_formula_units_Z   2
loop_
 _symmetry_equiv_pos_site_id
 _symmetry_equiv_pos_as_xyz
  1  'x, y, z'
loop_
 _atom_site_type_symbol
 _atom_site_label
 _atom_site_symmetry_multiplicity
 _atom_site_fract_x
 _atom_site_fract_y
 _atom_site_fract_z
 _atom_site_occupancy
  H  H0  1  0.36592731  0.20934340  0.80446323  1
  H  H1  1  0.63407269  0.43853592  0.84341609  1
  H  H2  1  0.86592731  0.55446323  0.45934340  1
  H  H3  1  0.59511983  0.15658391  0.79065660  1
  H  H4  1  0.40488017  0.19553677  0.56146408  1
  H  H5  1  0.09511983  0.54065660  0.40658391  1
  H  H6  1  0.39525184  0.37500000  0.27025184  1
  H  H7  1  0.13407269  0.59341609  0.68853592  1
  H  H8  1  0.60474816  0.87500000  0.97974816  1
  H  H9  1  0.89525184  0.02025184  0.62500000  1
  H  H10  1  0.10474816  0.72974816  0.12500000  1
  H  H11  1  0.90488017  0.31146408  0.44553677  1
  N  N12  1  0.50000000  0.25000000  0.75000000  1
  N  N13  1  0.00000000  0.50000000  0.50000000  1
  O  O14  1  0.93646178  0.73950330  0.97831256  1
  O  O15  1  0.56353822  0.55304152  0.29185078  1
  O  O16  1  0.43646178  0.72831256  0.98950330  1
  O  O17  1  0.06353822  0.04185078  0.80304152  1
  O  O18  1  0.76119074  0.02168744  0.95814922  1
  O  O19  1  0.23880926  0.19695848  0.26049670  1
  O  O20  1  0.26119074  0.70814922  0.27168744  1
  O  O21  1  0.73880926  0.01049670  0.44695848  1
  P  P22  1  0.00000000  0.00000000  0.00000000  1
  P  P23  1  0.50000000  0.75000000  0.25000000  1
