# generated using pymatgen
data_Na4Ga3Si3IO12
_symmetry_space_group_name_H-M   'P 1'
_cell_length_a   9.19053053
_cell_length_b   9.19053053
_cell_length_c   9.19053053
_cell_angle_alpha   90.00000000
_cell_angle_beta   90.00000000
_cell_angle_gamma   90.00000000
_symmetry_Int_Tables_number   1
_chemical_formula_structural   Na4Ga3Si3IO12
_chemical_formula_sum   'Na8 Ga6 Si6 I2 O24'
_cell_volume   776.28598624
_cell_formula_units_Z   2
loop_
 _symmetry_equiv_pos_site_id
 _symmetry_equiv_pos_as_xyz
  1  'x, y, z'
loop_
 _atom_site_type_symbol
 _atom_site_label
 _atom_site_symmetry_multiplicity
 _atom_site_fract_x
 _atom_site_fract_y
 _atom_site_fract_z
 _atom_site_occupancy
  Ga  Ga0  1  0.00000000  0.50000000  0.25000000  1
  Ga  Ga1  1  0.00000000  0.50000000  0.75000000  1
  Ga  Ga2  1  0.25000000  0.00000000  0.50000000  1
  Ga  Ga3  1  0.50000000  0.75000000  0.00000000  1
  Ga  Ga4  1  0.50000000  0.25000000  0.00000000  1
  Ga  Ga5  1  0.75000000  0.00000000  0.50000000  1
  I  I6  1  0.00000000  0.00000000  0.00000000  1
  I  I7  1  0.50000000  0.50000000  0.50000000  1
  Na  Na8  1  0.80657145  0.80657145  0.19342855  1
  Na  Na9  1  0.80657145  0.19342855  0.80657145  1
  Na  Na10  1  0.19342855  0.80657145  0.80657145  1
  Na  Na11  1  0.19342855  0.19342855  0.19342855  1
  Na  Na12  1  0.30657145  0.30657145  0.69342855  1
  Na  Na13  1  0.30657145  0.69342855  0.30657145  1
  Na  Na14  1  0.69342855  0.30657145  0.30657145  1
  Na  Na15  1  0.69342855  0.69342855  0.69342855  1
  O  O16  1  0.56233301  0.86237982  0.15409111  1
  O  O17  1  0.56233301  0.13762018  0.84590889  1
  O  O18  1  0.84590889  0.56233301  0.13762018  1
  O  O19  1  0.84590889  0.43766699  0.86237982  1
  O  O20  1  0.86237982  0.15409111  0.56233301  1
  O  O21  1  0.86237982  0.84590889  0.43766699  1
  O  O22  1  0.06233301  0.34590889  0.63762018  1
  O  O23  1  0.06233301  0.65409111  0.36237982  1
  O  O24  1  0.13762018  0.84590889  0.56233301  1
  O  O25  1  0.13762018  0.15409111  0.43766699  1
  O  O26  1  0.15409111  0.56233301  0.86237982  1
  O  O27  1  0.15409111  0.43766699  0.13762018  1
  O  O28  1  0.34590889  0.36237982  0.93766699  1
  O  O29  1  0.34590889  0.63762018  0.06233301  1
  O  O30  1  0.36237982  0.06233301  0.65409111  1
  O  O31  1  0.36237982  0.93766699  0.34590889  1
  O  O32  1  0.43766699  0.86237982  0.84590889  1
  O  O33  1  0.43766699  0.13762018  0.15409111  1
  O  O34  1  0.63762018  0.06233301  0.34590889  1
  O  O35  1  0.63762018  0.93766699  0.65409111  1
  O  O36  1  0.65409111  0.36237982  0.06233301  1
  O  O37  1  0.65409111  0.63762018  0.93766699  1
  O  O38  1  0.93766699  0.34590889  0.36237982  1
  O  O39  1  0.93766699  0.65409111  0.63762018  1
  Si  Si40  1  0.75000000  0.50000000  0.00000000  1
  Si  Si41  1  0.00000000  0.75000000  0.50000000  1
  Si  Si42  1  0.25000000  0.50000000  0.00000000  1
  Si  Si43  1  0.50000000  0.00000000  0.75000000  1
  Si  Si44  1  0.50000000  0.00000000  0.25000000  1
  Si  Si45  1  0.00000000  0.25000000  0.50000000  1
