# generated using pymatgen
data_H7NO6
_symmetry_space_group_name_H-M   'P 1'
_cell_length_a   3.66297088
_cell_length_b   9.57500813
_cell_length_c   14.61767975
_cell_angle_alpha   90.00000000
_cell_angle_beta   90.00000000
_cell_angle_gamma   90.00000000
_symmetry_Int_Tables_number   1
_chemical_formula_structural   H7NO6
_chemical_formula_sum   'H28 N4 O24'
_cell_volume   512.68553040
_cell_formula_units_Z   4
loop_
 _symmetry_equiv_pos_site_id
 _symmetry_equiv_pos_as_xyz
  1  'x, y, z'
loop_
 _atom_site_type_symbol
 _atom_site_label
 _atom_site_symmetry_multiplicity
 _atom_site_fract_x
 _atom_site_fract_y
 _atom_site_fract_z
 _atom_site_occupancy
  N  N0  1  0.18952510  0.27121009  0.33132677  1
  N  N1  1  0.68952510  0.22878991  0.66867323  1
  N  N2  1  0.81047490  0.77121009  0.16867323  1
  N  N3  1  0.31047490  0.72878991  0.83132677  1
  O  O4  1  0.06418457  0.38448869  0.30029913  1
  O  O5  1  0.56418457  0.11551131  0.69970087  1
  O  O6  1  0.93581543  0.88448869  0.19970087  1
  O  O7  1  0.43581543  0.61551131  0.80029913  1
  O  O8  1  0.18508912  0.16093197  0.28212054  1
  O  O9  1  0.68508912  0.33906803  0.71787946  1
  O  O10  1  0.81491088  0.66093197  0.21787946  1
  O  O11  1  0.31491088  0.83906803  0.78212054  1
  O  O12  1  0.32179285  0.26432781  0.41129304  1
  O  O13  1  0.82179285  0.23567219  0.58870696  1
  O  O14  1  0.67820715  0.76432781  0.08870696  1
  O  O15  1  0.17820715  0.73567219  0.91129304  1
  O  O16  1  0.08394014  0.55337162  0.63984262  1
  O  O17  1  0.58394014  0.94662838  0.36015738  1
  O  O18  1  0.91605986  0.05337162  0.86015738  1
  O  O19  1  0.41605986  0.44662838  0.13984262  1
  O  O20  1  0.40864644  0.51166408  0.48576404  1
  O  O21  1  0.90864644  0.98833592  0.51423596  1
  O  O22  1  0.59135356  0.01166408  0.01423596  1
  O  O23  1  0.09135356  0.48833592  0.98576404  1
  O  O24  1  0.17498692  0.70539619  0.38921692  1
  O  O25  1  0.67498692  0.79460381  0.61078308  1
  O  O26  1  0.82501308  0.20539619  0.11078308  1
  O  O27  1  0.32501308  0.29460381  0.88921692  1
  H  H28  1  0.24876472  0.57537187  0.69187880  1
  H  H29  1  0.74876472  0.92462813  0.30812120  1
  H  H30  1  0.75123528  0.07537187  0.80812120  1
  H  H31  1  0.25123528  0.42462813  0.19187880  1
  H  H32  1  0.93231196  0.47378098  0.66217355  1
  H  H33  1  0.43231196  0.02621902  0.33782645  1
  H  H34  1  0.06768804  0.97378098  0.83782645  1
  H  H35  1  0.56768804  0.52621902  0.16217355  1
  H  H36  1  0.33395069  0.78820870  0.37949610  1
  H  H37  1  0.83395069  0.71179130  0.62050390  1
  H  H38  1  0.66604931  0.28820870  0.12050390  1
  H  H39  1  0.16604931  0.21179130  0.87949610  1
  H  H40  1  0.06576152  0.68134723  0.32946381  1
  H  H41  1  0.56576152  0.81865277  0.67053619  1
  H  H42  1  0.93423848  0.18134723  0.17053619  1
  H  H43  1  0.43423848  0.31865277  0.82946381  1
  H  H44  1  0.31344588  0.59335192  0.44116405  1
  H  H45  1  0.81344588  0.90664808  0.55883595  1
  H  H46  1  0.68655412  0.09335192  0.05883595  1
  H  H47  1  0.18655412  0.40664808  0.94116405  1
  H  H48  1  0.36109217  0.41601415  0.45755787  1
  H  H49  1  0.86109217  0.08398585  0.54244213  1
  H  H50  1  0.63890783  0.91601415  0.04244213  1
  H  H51  1  0.13890783  0.58398585  0.95755787  1
  H  H52  1  0.27903867  0.52110578  0.54804623  1
  H  H53  1  0.77903867  0.97889422  0.45195377  1
  H  H54  1  0.72096133  0.02110578  0.95195377  1
  H  H55  1  0.22096133  0.47889422  0.04804623  1
