# generated using pymatgen
data_TiPHO5
_symmetry_space_group_name_H-M   'P 1'
_cell_length_a   7.51752814
_cell_length_b   7.07350396
_cell_length_c   7.80238334
_cell_angle_alpha   90.00000000
_cell_angle_beta   121.82106935
_cell_angle_gamma   90.00000000
_symmetry_Int_Tables_number   1
_chemical_formula_structural   TiPHO5
_chemical_formula_sum   'Ti4 P4 H4 O20'
_cell_volume   352.53479009
_cell_formula_units_Z   4
loop_
 _symmetry_equiv_pos_site_id
 _symmetry_equiv_pos_as_xyz
  1  'x, y, z'
loop_
 _atom_site_type_symbol
 _atom_site_label
 _atom_site_symmetry_multiplicity
 _atom_site_fract_x
 _atom_site_fract_y
 _atom_site_fract_z
 _atom_site_occupancy
  Ti  Ti0  1  0.75187843  0.27676767  0.28136867  1
  Ti  Ti1  1  0.24812157  0.77676667  0.71863133  1
  Ti  Ti2  1  0.25532840  0.77314368  0.28082591  1
  Ti  Ti3  1  0.74467360  0.27314268  0.71917409  1
  P  P4  1  0.75074840  0.64300356  0.00007754  1
  P  P5  1  0.24925060  0.14300256  -0.00007854  1
  P  P6  1  0.24992146  0.38338249  0.50128692  1
  P  P7  1  0.75007854  0.88338049  0.49871208  1
  H  H8  1  0.36040053  0.53840139  0.05260856  1
  H  H9  1  0.63959947  0.03840039  0.94739344  1
  H  H10  1  0.12112295  0.55642777  0.93206935  1
  H  H11  1  0.87887705  0.05642877  0.06793065  1
  O  O12  1  0.24876481  0.63615088  0.99737508  1
  O  O13  1  0.75123519  0.13615188  0.00262492  1
  O  O14  1  0.74800236  0.35236273  0.50061557  1
  O  O15  1  0.25199864  0.85236173  0.49938543  1
  O  O16  1  0.26235111  0.51087479  0.66863439  1
  O  O17  1  0.73764989  0.01087379  0.33136761  1
  O  O18  1  0.74509629  0.51589161  0.83572094  1
  O  O19  1  0.25490371  0.01589161  0.16428006  1
  O  O20  1  0.55841303  0.77631369  0.90991169  1
  O  O21  1  0.44158597  0.27631469  0.09008831  1
  O  O22  1  0.44483626  0.25434349  0.59424274  1
  O  O23  1  0.55516374  0.75434449  0.40575726  1
  O  O24  1  0.75279020  0.51763053  0.16338622  1
  O  O25  1  0.24720880  0.01763153  0.83661278  1
  O  O26  1  0.24133777  0.50814875  0.33355085  1
  O  O27  1  0.75866323  0.00814975  0.66644915  1
  O  O28  1  0.94716613  0.75811463  0.59115382  1
  O  O29  1  0.05283287  0.25811463  0.40884618  1
  O  O30  1  0.05350289  0.27134634  0.90948820  1
  O  O31  1  0.94649711  0.77134734  0.09050980  1
