# generated using pymatgen
data_YMoN3
_symmetry_space_group_name_H-M   'P 1'
_cell_length_a   6.29992161
_cell_length_b   7.36266481
_cell_length_c   7.36266450
_cell_angle_alpha   98.52046640
_cell_angle_beta   106.63896465
_cell_angle_gamma   73.36102915
_symmetry_Int_Tables_number   1
_chemical_formula_structural   YMoN3
_chemical_formula_sum   'Y4 Mo4 N12'
_cell_volume   312.69511412
_cell_formula_units_Z   4
loop_
 _symmetry_equiv_pos_site_id
 _symmetry_equiv_pos_as_xyz
  1  'x, y, z'
loop_
 _atom_site_type_symbol
 _atom_site_label
 _atom_site_symmetry_multiplicity
 _atom_site_fract_x
 _atom_site_fract_y
 _atom_site_fract_z
 _atom_site_occupancy
  Y  Y0  1  0.75000000  0.91209518  0.91209518  1
  Y  Y1  1  0.25000000  0.70683033  0.70683033  1
  Y  Y2  1  0.25000000  0.08790482  0.08790482  1
  Y  Y3  1  0.75000000  0.29316967  0.29316967  1
  Mo  Mo4  1  0.77391295  0.79967112  0.38014505  1
  Mo  Mo5  1  0.22608705  0.20032888  0.61985495  1
  Mo  Mo6  1  0.27391295  0.61985495  0.20032888  1
  Mo  Mo7  1  0.72608705  0.38014505  0.79967112  1
  N  N8  1  0.84546496  0.21957737  0.99945231  1
  N  N9  1  0.43023268  0.36605186  0.65517461  1
  N  N10  1  0.56976732  0.63394814  0.34482539  1
  N  N11  1  0.66125061  0.62370197  0.88613866  1
  N  N12  1  0.65453504  0.99945231  0.21957737  1
  N  N13  1  0.15453504  0.78042263  0.00054769  1
  N  N14  1  0.16125061  0.11386134  0.37629803  1
  N  N15  1  0.83874939  0.88613866  0.62370197  1
  N  N16  1  0.34546496  0.00054769  0.78042263  1
  N  N17  1  0.93023268  0.34482539  0.63394814  1
  N  N18  1  0.06976732  0.65517461  0.36605186  1
  N  N19  1  0.33874939  0.37629803  0.11386134  1
