# generated using pymatgen
data_CsLiH4SO5
_symmetry_space_group_name_H-M   'P 1'
_cell_length_a   5.74034789
_cell_length_b   6.71011798
_cell_length_c   4.81221922
_cell_angle_alpha   72.86935121
_cell_angle_beta   90.00000000
_cell_angle_gamma   64.67589241
_symmetry_Int_Tables_number   1
_chemical_formula_structural   CsLiH4SO5
_chemical_formula_sum   'Cs1 Li1 H4 S1 O5'
_cell_volume   158.40113716
_cell_formula_units_Z   1
loop_
 _symmetry_equiv_pos_site_id
 _symmetry_equiv_pos_as_xyz
  1  'x, y, z'
loop_
 _atom_site_type_symbol
 _atom_site_label
 _atom_site_symmetry_multiplicity
 _atom_site_fract_x
 _atom_site_fract_y
 _atom_site_fract_z
 _atom_site_occupancy
  Cs  Cs0  1  0.00037241  0.99925518  0.00012481  1
  Li  Li1  1  0.67690163  0.64619574  0.62949093  1
  H  H2  1  0.89971113  0.47058156  0.23332299  1
  H  H3  1  0.62970731  0.47058156  0.23332299  1
  H  H4  1  0.45838058  0.08323884  0.55567356  1
  H  H5  1  0.45796635  0.08406730  0.21938448  1
  S  S6  1  0.25915511  0.48169078  0.72595704  1
  O  O7  1  0.50916137  0.98167726  0.42945176  1
  O  O8  1  0.00881303  0.55271560  0.87144960  1
  O  O9  1  0.43847037  0.55271560  0.87144960  1
  O  O10  1  0.77576596  0.44846907  0.36926063  1
  O  O11  1  0.39461475  0.21077050  0.83741162  1
