# generated using pymatgen
data_Li2FeF4
_symmetry_space_group_name_H-M   'P 1'
_cell_length_a   5.19421112
_cell_length_b   3.13713385
_cell_length_c   9.80939056
_cell_angle_alpha   89.89808915
_cell_angle_beta   85.30440737
_cell_angle_gamma   89.99653990
_symmetry_Int_Tables_number   1
_chemical_formula_structural   Li2FeF4
_chemical_formula_sum   'Li4 Fe2 F8'
_cell_volume   159.30664951
_cell_formula_units_Z   2
loop_
 _symmetry_equiv_pos_site_id
 _symmetry_equiv_pos_as_xyz
  1  'x, y, z'
loop_
 _atom_site_type_symbol
 _atom_site_label
 _atom_site_symmetry_multiplicity
 _atom_site_fract_x
 _atom_site_fract_y
 _atom_site_fract_z
 _atom_site_occupancy
  Li  Li0  1  0.26093195  0.88909855  0.06574930  1
  Li  Li1  1  0.24611521  0.89418038  0.43041244  1
  Li  Li2  1  0.74611301  0.11000514  0.93040465  1
  Li  Li3  1  0.76063144  0.10763539  0.56564739  1
  Fe  Fe4  1  0.25358983  0.59714391  0.74826974  1
  Fe  Fe5  1  0.75372516  0.40353449  0.24820819  1
  F  F6  1  0.08640451  0.38338777  0.12914913  1
  F  F7  1  0.11569714  0.09730765  0.61890484  1
  F  F8  1  0.42197679  0.39005252  0.36812088  1
  F  F9  1  0.61561719  0.90461080  0.11898558  1
  F  F10  1  0.39200451  0.09592596  0.87753638  1
  F  F11  1  0.58629224  0.61142040  0.62929526  1
  F  F12  1  0.89163896  0.90301758  0.37764295  1
  F  F13  1  0.92234707  0.61600346  0.86856026  1
