# generated using pymatgen
data_Na3Sr3AlP4
_symmetry_space_group_name_H-M   'P 1'
_cell_length_a   9.43700932
_cell_length_b   9.43700920
_cell_length_c   7.39839095
_cell_angle_alpha   90.00000000
_cell_angle_beta   90.00000000
_cell_angle_gamma   120.00000042
_symmetry_Int_Tables_number   1
_chemical_formula_structural   Na3Sr3AlP4
_chemical_formula_sum   'Na6 Sr6 Al2 P8'
_cell_volume   570.60644035
_cell_formula_units_Z   2
loop_
 _symmetry_equiv_pos_site_id
 _symmetry_equiv_pos_as_xyz
  1  'x, y, z'
loop_
 _atom_site_type_symbol
 _atom_site_label
 _atom_site_symmetry_multiplicity
 _atom_site_fract_x
 _atom_site_fract_y
 _atom_site_fract_z
 _atom_site_occupancy
  Al  Al0  1  0.33333300  0.66666700  0.87398245  1
  Al  Al1  1  0.66666700  0.33333300  0.37398245  1
  Na  Na2  1  0.72813912  0.86406956  0.17051233  1
  Na  Na3  1  0.86406956  0.13593044  0.67051233  1
  Na  Na4  1  0.86406956  0.72813912  0.67051233  1
  Na  Na5  1  0.13593044  0.27186088  0.17051233  1
  Na  Na6  1  0.13593044  0.86406956  0.17051233  1
  Na  Na7  1  0.27186088  0.13593044  0.67051233  1
  P  P8  1  0.66666700  0.33333300  0.70997457  1
  P  P9  1  0.61630829  0.80815414  0.77897638  1
  P  P10  1  0.80815414  0.19184586  0.27897638  1
  P  P11  1  0.80815414  0.61630829  0.27897638  1
  P  P12  1  0.33333300  0.66666700  0.20997457  1
  P  P13  1  0.19184586  0.38369171  0.77897638  1
  P  P14  1  0.19184586  0.80815414  0.77897638  1
  P  P15  1  0.38369171  0.19184586  0.27897638  1
  Sr  Sr16  1  0.04818804  0.52409402  0.49892562  1
  Sr  Sr17  1  0.47590598  0.95181196  0.49892562  1
  Sr  Sr18  1  0.47590598  0.52409402  0.49892562  1
  Sr  Sr19  1  0.52409402  0.47590598  0.99892562  1
  Sr  Sr20  1  0.52409402  0.04818804  0.99892562  1
  Sr  Sr21  1  0.95181196  0.47590598  0.99892562  1
