# generated using pymatgen
data_Li6I3N
_symmetry_space_group_name_H-M   'P 1'
_cell_length_a   6.78769514
_cell_length_b   6.75047041
_cell_length_c   6.75503540
_cell_angle_alpha   60.34262995
_cell_angle_beta   59.79536100
_cell_angle_gamma   60.04391377
_symmetry_Int_Tables_number   1
_chemical_formula_structural   Li6I3N
_chemical_formula_sum   'Li6 I3 N1'
_cell_volume   219.15206249
_cell_formula_units_Z   1
loop_
 _symmetry_equiv_pos_site_id
 _symmetry_equiv_pos_as_xyz
  1  'x, y, z'
loop_
 _atom_site_type_symbol
 _atom_site_label
 _atom_site_symmetry_multiplicity
 _atom_site_fract_x
 _atom_site_fract_y
 _atom_site_fract_z
 _atom_site_occupancy
  Li  Li0  1  0.27790313  0.72209687  0.12957876  1
  Li  Li1  1  0.22351597  0.18343268  0.81768679  1
  Li  Li2  1  0.13305410  0.86694591  0.74807037  1
  Li  Li3  1  0.89573323  0.10426677  0.27932748  1
  Li  Li4  1  0.75103469  0.24896531  0.89690991  1
  Li  Li5  1  0.81656732  0.77648403  0.22463544  1
  I  I6  1  0.25418866  0.24610765  0.25465692  1
  I  I7  1  0.50316254  0.49683746  0.50308583  1
  I  I8  1  0.75389235  0.74581134  0.75495323  1
  N  N9  1  0.01374802  0.98625198  0.01389526  1
