# generated using pymatgen
data_LiVPO4
_symmetry_space_group_name_H-M   'P 1'
_cell_length_a   5.49131871
_cell_length_b   6.42337392
_cell_length_c   5.49131871
_cell_angle_alpha   76.89592791
_cell_angle_beta   61.99197267
_cell_angle_gamma   103.10407209
_symmetry_Int_Tables_number   1
_chemical_formula_structural   LiVPO4
_chemical_formula_sum   'Li2 V2 P2 O8'
_cell_volume   153.54454753
_cell_formula_units_Z   2
loop_
 _symmetry_equiv_pos_site_id
 _symmetry_equiv_pos_as_xyz
  1  'x, y, z'
loop_
 _atom_site_type_symbol
 _atom_site_label
 _atom_site_symmetry_multiplicity
 _atom_site_fract_x
 _atom_site_fract_y
 _atom_site_fract_z
 _atom_site_occupancy
  Li  Li0  1  0.80975775  0.25000000  0.80975775  1
  Li  Li1  1  0.55975775  0.75000000  0.55975775  1
  V  V2  1  0.43394412  0.25000000  0.43394412  1
  V  V3  1  0.18394412  0.75000000  0.18394412  1
  P  P4  1  0.12249845  0.25000000  0.12249845  1
  P  P5  1  0.87249845  0.75000000  0.87249845  1
  O  O6  1  0.78828667  0.10521654  0.26554029  1
  O  O7  1  0.30345679  0.10003779  0.15151593  1
  O  O8  1  0.75155272  0.60003779  0.20341900  1
  O  O9  1  0.87075683  0.60521654  0.68307014  1
  O  O10  1  0.15151593  0.39996221  0.30345679  1
  O  O11  1  0.26554029  0.39478346  0.78828667  1
  O  O12  1  0.68307014  0.89478346  0.87075683  1
  O  O13  1  0.20341900  0.89996221  0.75155272  1
