# generated using pymatgen
data_Li2Fe2Si2O7
_symmetry_space_group_name_H-M   'P 1'
_cell_length_a   5.07506685
_cell_length_b   4.93519450
_cell_length_c   13.30185855
_cell_angle_alpha   90.00000000
_cell_angle_beta   90.00000000
_cell_angle_gamma   120.94204641
_symmetry_Int_Tables_number   1
_chemical_formula_structural   Li2Fe2Si2O7
_chemical_formula_sum   'Li4 Fe4 Si4 O14'
_cell_volume   285.75089889
_cell_formula_units_Z   2
loop_
 _symmetry_equiv_pos_site_id
 _symmetry_equiv_pos_as_xyz
  1  'x, y, z'
loop_
 _atom_site_type_symbol
 _atom_site_label
 _atom_site_symmetry_multiplicity
 _atom_site_fract_x
 _atom_site_fract_y
 _atom_site_fract_z
 _atom_site_occupancy
  Li  Li0  1  0.34519419  0.59619044  0.58334454  1
  Li  Li1  1  0.34519419  0.59619044  0.91665546  1
  Li  Li2  1  0.74900376  0.40380956  0.41665546  1
  Li  Li3  1  0.74900376  0.40380956  0.08334454  1
  Fe  Fe4  1  0.03881984  1.00000000  0.00000000  1
  Fe  Fe5  1  0.03881984  1.00000000  0.50000000  1
  Fe  Fe6  1  0.02466099  0.01688045  0.25000000  1
  Fe  Fe7  1  0.00778054  0.98311955  0.75000000  1
  Si  Si8  1  0.40274754  0.70957582  0.36278094  1
  Si  Si9  1  0.40274754  0.70957582  0.13721906  1
  Si  Si10  1  0.69317073  0.29042418  0.63721906  1
  Si  Si11  1  0.69317073  0.29042418  0.86278094  1
  O  O12  1  0.13192261  0.79718920  0.13465451  1
  O  O13  1  0.13192261  0.79718920  0.36534549  1
  O  O14  1  0.37211404  0.53298016  0.25000000  1
  O  O15  1  0.71690469  0.97159223  0.86954825  1
  O  O16  1  0.71690469  0.97159223  0.63045175  1
  O  O17  1  0.37483728  0.45522652  0.05470106  1
  O  O18  1  0.37483728  0.45522652  0.44529894  1
  O  O19  1  0.33473341  0.20281080  0.86534549  1
  O  O20  1  0.33473341  0.20281080  0.63465451  1
  O  O21  1  0.83913388  0.46701984  0.75000000  1
  O  O22  1  0.74531246  0.02840777  0.36954825  1
  O  O23  1  0.74531246  0.02840777  0.13045175  1
  O  O24  1  0.91961176  0.54477348  0.55470106  1
  O  O25  1  0.91961176  0.54477348  0.94529894  1
