# generated using pymatgen
data_Li3VCr2O6
_symmetry_space_group_name_H-M   'P 1'
_cell_length_a   15.45215187
_cell_length_b   9.85039179
_cell_length_c   9.85039166
_cell_angle_alpha   17.30732547
_cell_angle_beta   16.84301604
_cell_angle_gamma   16.84301758
_symmetry_Int_Tables_number   1
_chemical_formula_structural   Li3VCr2O6
_chemical_formula_sum   'Li3 V1 Cr2 O6'
_cell_volume   111.72241616
_cell_formula_units_Z   1
loop_
 _symmetry_equiv_pos_site_id
 _symmetry_equiv_pos_as_xyz
  1  'x, y, z'
loop_
 _atom_site_type_symbol
 _atom_site_label
 _atom_site_symmetry_multiplicity
 _atom_site_fract_x
 _atom_site_fract_y
 _atom_site_fract_z
 _atom_site_occupancy
  Li  Li0  1  0.16666700  0.50000000  0.50000000  1
  Li  Li1  1  0.49809500  0.50092480  0.50092480  1
  Li  Li2  1  0.83523800  0.49907520  0.49907520  1
  V  V3  1  0.66666700  0.00000000  0.00000000  1
  Cr  Cr4  1  0.99803623  0.00134587  0.00134587  1
  Cr  Cr5  1  0.33529677  0.99865413  0.99865413  1
  O  O6  1  0.24255198  0.26138734  0.26138734  1
  O  O7  1  0.58169536  0.25747804  0.25747804  1
  O  O8  1  0.09078102  0.73861266  0.73861266  1
  O  O9  1  0.91827193  0.25420203  0.25420203  1
  O  O10  1  0.41506107  0.74579797  0.74579797  1
  O  O11  1  0.75163764  0.74252196  0.74252196  1
