# generated using pymatgen
data_Na2FeO3
_symmetry_space_group_name_H-M   'P 1'
_cell_length_a   5.82979694
_cell_length_b   5.82979694
_cell_length_c   5.29248058
_cell_angle_alpha   82.25628017
_cell_angle_beta   97.74371983
_cell_angle_gamma   57.88365280
_symmetry_Int_Tables_number   1
_chemical_formula_structural   Na2FeO3
_chemical_formula_sum   'Na4 Fe2 O6'
_cell_volume   146.32242755
_cell_formula_units_Z   2
loop_
 _symmetry_equiv_pos_site_id
 _symmetry_equiv_pos_as_xyz
  1  'x, y, z'
loop_
 _atom_site_type_symbol
 _atom_site_label
 _atom_site_symmetry_multiplicity
 _atom_site_fract_x
 _atom_site_fract_y
 _atom_site_fract_z
 _atom_site_occupancy
  Na  Na0  1  0.58990038  0.59535156  0.49162583  1
  Na  Na1  1  0.24681625  0.25887456  0.50176571  1
  Na  Na2  1  0.74112544  0.75318375  0.00176571  1
  Na  Na3  1  0.40464844  0.41009962  0.99162583  1
  Fe  Fe4  1  0.96048317  0.91449213  0.51690857  1
  Fe  Fe5  1  0.08550787  0.03951683  0.01690857  1
  O  O6  1  0.28486515  0.86133628  0.76937423  1
  O  O7  1  0.13866372  0.71513485  0.26937423  1
  O  O8  1  0.95709647  0.62337391  0.67247364  1
  O  O9  1  0.75756007  0.14569404  0.74565101  1
  O  O10  1  0.37662609  0.04290353  0.17247364  1
  O  O11  1  0.85430596  0.24243993  0.24565101  1
