# generated using pymatgen
data_CaCeO3
_symmetry_space_group_name_H-M   'P 1'
_cell_length_a   5.84071885
_cell_length_b   6.06214984
_cell_length_c   8.51260160
_cell_angle_alpha   90.00000000
_cell_angle_beta   90.00000000
_cell_angle_gamma   90.00000000
_symmetry_Int_Tables_number   1
_chemical_formula_structural   CaCeO3
_chemical_formula_sum   'Ca4 Ce4 O12'
_cell_volume   301.40834795
_cell_formula_units_Z   4
loop_
 _symmetry_equiv_pos_site_id
 _symmetry_equiv_pos_as_xyz
  1  'x, y, z'
loop_
 _atom_site_type_symbol
 _atom_site_label
 _atom_site_symmetry_multiplicity
 _atom_site_fract_x
 _atom_site_fract_y
 _atom_site_fract_z
 _atom_site_occupancy
  Ca  Ca0  1  0.01214464  0.94915509  0.75000000  1
  Ca  Ca1  1  0.48785536  0.44915509  0.75000000  1
  Ca  Ca2  1  0.51214464  0.55084491  0.25000000  1
  Ca  Ca3  1  0.98785536  0.05084491  0.25000000  1
  Ce  Ce4  1  0.00000000  0.50000000  0.00000000  1
  Ce  Ce5  1  0.00000000  0.50000000  0.50000000  1
  Ce  Ce6  1  0.50000000  0.00000000  0.00000000  1
  Ce  Ce7  1  0.50000000  0.00000000  0.50000000  1
  O  O8  1  0.13018234  0.43135269  0.25000000  1
  O  O9  1  0.18791532  0.18909763  0.56987713  1
  O  O10  1  0.18791532  0.18909763  0.93012287  1
  O  O11  1  0.31208468  0.68909763  0.56987713  1
  O  O12  1  0.31208468  0.68909763  0.93012287  1
  O  O13  1  0.36981766  0.93135269  0.25000000  1
  O  O14  1  0.63018234  0.06864731  0.75000000  1
  O  O15  1  0.68791532  0.31090237  0.06987713  1
  O  O16  1  0.68791532  0.31090237  0.43012287  1
  O  O17  1  0.81208468  0.81090237  0.06987713  1
  O  O18  1  0.81208468  0.81090237  0.43012287  1
  O  O19  1  0.86981766  0.56864731  0.75000000  1
