# generated using pymatgen
data_LiVF4
_symmetry_space_group_name_H-M   'P 1'
_cell_length_a   5.24973720
_cell_length_b   6.52348344
_cell_length_c   5.49734795
_cell_angle_alpha   87.81947584
_cell_angle_beta   90.02032940
_cell_angle_gamma   66.24958959
_symmetry_Int_Tables_number   1
_chemical_formula_structural   LiVF4
_chemical_formula_sum   'Li2 V2 F8'
_cell_volume   172.17079841
_cell_formula_units_Z   2
loop_
 _symmetry_equiv_pos_site_id
 _symmetry_equiv_pos_as_xyz
  1  'x, y, z'
loop_
 _atom_site_type_symbol
 _atom_site_label
 _atom_site_symmetry_multiplicity
 _atom_site_fract_x
 _atom_site_fract_y
 _atom_site_fract_z
 _atom_site_occupancy
  Li  Li0  1  0.00759380  0.99848836  0.75163022  1
  Li  Li1  1  0.99763442  0.99937892  0.25135968  1
  V  V2  1  0.00042272  0.50046149  0.00195605  1
  V  V3  1  0.50066659  0.49812063  0.50173577  1
  F  F4  1  0.04518742  0.18740289  0.99444532  1
  F  F5  1  0.23097699  0.42551453  0.30115772  1
  F  F6  1  0.34416262  0.42688480  0.80199255  1
  F  F7  1  0.23315641  0.81036862  0.50768382  1
  F  F8  1  0.76815954  0.18540112  0.49582659  1
  F  F9  1  0.65795674  0.57130462  0.20264155  1
  F  F10  1  0.77050250  0.57269200  0.70219334  1
  F  F11  1  0.95505226  0.81221201  0.00831540  1
