# generated using pymatgen
data_LiH2IO
_symmetry_space_group_name_H-M   'P 1'
_cell_length_a   6.34950625
_cell_length_b   5.67330660
_cell_length_c   4.39002184
_cell_angle_alpha   90.00000000
_cell_angle_beta   90.00000000
_cell_angle_gamma   90.18648392
_symmetry_Int_Tables_number   1
_chemical_formula_structural   LiH2IO
_chemical_formula_sum   'Li2 H4 I2 O2'
_cell_volume   158.13958311
_cell_formula_units_Z   2
loop_
 _symmetry_equiv_pos_site_id
 _symmetry_equiv_pos_as_xyz
  1  'x, y, z'
loop_
 _atom_site_type_symbol
 _atom_site_label
 _atom_site_symmetry_multiplicity
 _atom_site_fract_x
 _atom_site_fract_y
 _atom_site_fract_z
 _atom_site_occupancy
  Li  Li0  1  0.25045608  0.74887352  0.50000000  1
  Li  Li1  1  0.75188710  0.74673540  0.50000000  1
  H  H2  1  0.00017994  0.39125120  0.32362919  1
  H  H3  1  0.00017994  0.39125120  0.67637081  1
  H  H4  1  0.51053040  0.09982803  0.32309457  1
  H  H5  1  0.51053040  0.09982803  0.67690543  1
  I  I6  1  0.00120738  0.99959408  0.00000000  1
  I  I7  1  0.50006835  0.49806576  0.00000000  1
  O  O8  1  0.00005188  0.50027078  0.50000000  1
  O  O9  1  0.50790853  0.99130201  0.50000000  1
