# generated using pymatgen
data_TaCrO4
_symmetry_space_group_name_H-M   'P 1'
_cell_length_a   5.61855742
_cell_length_b   5.61855742
_cell_length_c   5.61855742
_cell_angle_alpha   72.83760759
_cell_angle_beta   107.16239241
_cell_angle_gamma   65.80533690
_symmetry_Int_Tables_number   1
_chemical_formula_structural   TaCrO4
_chemical_formula_sum   'Ta2 Cr2 O8'
_cell_volume   135.83581785
_cell_formula_units_Z   2
loop_
 _symmetry_equiv_pos_site_id
 _symmetry_equiv_pos_as_xyz
  1  'x, y, z'
loop_
 _atom_site_type_symbol
 _atom_site_label
 _atom_site_symmetry_multiplicity
 _atom_site_fract_x
 _atom_site_fract_y
 _atom_site_fract_z
 _atom_site_occupancy
  Ta  Ta0  1  0.26026978  0.23973022  0.50000000  1
  Ta  Ta1  1  0.01026978  0.98973022  0.00000000  1
  Cr  Cr2  1  0.75066060  0.74933940  0.50000000  1
  Cr  Cr3  1  0.50066060  0.49933940  0.00000000  1
  O  O4  1  0.55568126  0.24808362  0.80376588  1
  O  O5  1  0.04539877  0.75738057  0.80278034  1
  O  O6  1  0.00191638  0.30184950  0.69623412  1
  O  O7  1  0.49261943  0.81016090  0.69721966  1
  O  O8  1  0.00191638  0.69431874  0.30376588  1
  O  O9  1  0.49261943  0.20460123  0.30278034  1
  O  O10  1  0.94815050  0.24808362  0.19623412  1
  O  O11  1  0.43983910  0.75738057  0.19721966  1
