# generated using pymatgen
data_Li2Mn3TeO8
_symmetry_space_group_name_H-M   'P 1'
_cell_length_a   6.06458089
_cell_length_b   6.06595107
_cell_length_c   9.89478266
_cell_angle_alpha   90.00350097
_cell_angle_beta   89.99825032
_cell_angle_gamma   120.00747738
_symmetry_Int_Tables_number   1
_chemical_formula_structural   Li2Mn3TeO8
_chemical_formula_sum   'Li4 Mn6 Te2 O16'
_cell_volume   315.21281019
_cell_formula_units_Z   2
loop_
 _symmetry_equiv_pos_site_id
 _symmetry_equiv_pos_as_xyz
  1  'x, y, z'
loop_
 _atom_site_type_symbol
 _atom_site_label
 _atom_site_symmetry_multiplicity
 _atom_site_fract_x
 _atom_site_fract_y
 _atom_site_fract_z
 _atom_site_occupancy
  Li  Li0  1  0.33334621  0.66667362  0.91204564  1
  Li  Li1  1  0.99996321  0.99997190  0.98163400  1
  Li  Li2  1  0.00003679  0.00000869  0.48163400  1
  Li  Li3  1  0.66665379  0.33332741  0.41204564  1
  Mn  Mn4  1  0.17067327  0.82940085  0.21119482  1
  Mn  Mn5  1  0.17063988  0.34129331  0.21118482  1
  Mn  Mn6  1  0.65865586  0.82936235  0.21125979  1
  Mn  Mn7  1  0.34134414  0.17070649  0.71125979  1
  Mn  Mn8  1  0.82932673  0.65872759  0.71119482  1
  Mn  Mn9  1  0.82936012  0.17065343  0.71118482  1
  Te  Te10  1  0.33324360  0.66663465  0.48292273  1
  Te  Te11  1  0.66675640  0.33339106  0.98292273  1
  O  O12  1  0.17321482  0.82670210  0.58921655  1
  O  O13  1  0.03853144  0.51924479  0.35721932  1
  O  O14  1  0.33315668  0.66651773  0.11419821  1
  O  O15  1  0.00015948  0.00015625  0.29012661  1
  O  O16  1  0.99984052  0.99999677  0.79012661  1
  O  O17  1  0.17319049  0.34653761  0.58922377  1
  O  O18  1  0.48065863  0.96139083  0.35724372  1
  O  O19  1  0.48064368  0.51926177  0.35724668  1
  O  O20  1  0.34656537  0.17332406  0.08920134  1
  O  O21  1  0.65343463  0.82675869  0.58920134  1
  O  O22  1  0.51934137  0.48073120  0.85724372  1
  O  O23  1  0.51935632  0.03861809  0.85724668  1
  O  O24  1  0.66684332  0.33336105  0.61419821  1
  O  O25  1  0.82678518  0.65348727  0.08921655  1
  O  O26  1  0.96146856  0.48071336  0.85721932  1
  O  O27  1  0.82680951  0.17334712  0.08922377  1
