# generated using pymatgen
data_RbVBr3
_symmetry_space_group_name_H-M   'P 1'
_cell_length_a   13.07229721
_cell_length_b   13.07229721
_cell_length_c   6.55779984
_cell_angle_alpha   90.00000000
_cell_angle_beta   90.00000000
_cell_angle_gamma   119.99999998
_symmetry_Int_Tables_number   1
_chemical_formula_structural   RbVBr3
_chemical_formula_sum   'Rb6 V6 Br18'
_cell_volume   970.49346481
_cell_formula_units_Z   6
loop_
 _symmetry_equiv_pos_site_id
 _symmetry_equiv_pos_as_xyz
  1  'x, y, z'
loop_
 _atom_site_type_symbol
 _atom_site_label
 _atom_site_symmetry_multiplicity
 _atom_site_fract_x
 _atom_site_fract_y
 _atom_site_fract_z
 _atom_site_occupancy
  V  V0  1  0.00000000  0.00000000  -0.00199081  1
  V  V1  1  0.00000000  0.00000000  0.49800919  1
  V  V2  1  0.33333333  0.66666667  0.05378211  1
  V  V3  1  0.66666667  0.33333333  0.55378211  1
  V  V4  1  0.33333333  0.66666667  0.55378211  1
  V  V5  1  0.66666667  0.33333333  0.05378211  1
  Br  Br6  1  0.50813201  0.33424932  0.80445018  1
  Br  Br7  1  0.49186799  0.66575068  0.30445018  1
  Br  Br8  1  0.33424932  0.82611731  0.30445018  1
  Br  Br9  1  0.17388269  0.50813201  0.30445018  1
  Br  Br10  1  0.82611731  0.49186799  0.80445018  1
  Br  Br11  1  0.00000000  0.15920276  0.24711553  1
  Br  Br12  1  0.15920276  0.00000000  0.24711553  1
  Br  Br13  1  0.15920276  0.15920276  0.74711553  1
  Br  Br14  1  0.00000000  0.84079724  0.74711553  1
  Br  Br15  1  0.50813201  0.17388269  0.30445018  1
  Br  Br16  1  0.84079724  0.84079724  0.24711553  1
  Br  Br17  1  0.84079724  0.00000000  0.74711553  1
  Br  Br18  1  0.49186799  0.82611731  0.80445018  1
  Br  Br19  1  0.33424932  0.50813201  0.80445018  1
  Br  Br20  1  0.17388269  0.66575068  0.80445018  1
  Br  Br21  1  0.82611731  0.33424932  0.30445018  1
  Br  Br22  1  0.66575068  0.49186799  0.30445018  1
  Br  Br23  1  0.66575068  0.17388269  0.80445018  1
  Rb  Rb24  1  0.33197575  0.33197575  0.26345965  1
  Rb  Rb25  1  0.66802425  0.66802425  0.76345965  1
  Rb  Rb26  1  0.00000000  0.66802425  0.26345965  1
  Rb  Rb27  1  0.66802425  0.00000000  0.26345965  1
  Rb  Rb28  1  0.33197575  0.00000000  0.76345965  1
  Rb  Rb29  1  0.00000000  0.33197575  0.76345965  1
