# generated using pymatgen
data_CsGaP3HO10
_symmetry_space_group_name_H-M   'P 1'
_cell_length_a   6.30166523
_cell_length_b   6.36808843
_cell_length_c   6.36808844
_cell_angle_alpha   87.77381937
_cell_angle_beta   74.44578932
_cell_angle_gamma   74.44578939
_symmetry_Int_Tables_number   1
_chemical_formula_structural   CsGaP3HO10
_chemical_formula_sum   'Cs1 Ga1 P3 H1 O10'
_cell_volume   237.02300191
_cell_formula_units_Z   1
loop_
 _symmetry_equiv_pos_site_id
 _symmetry_equiv_pos_as_xyz
  1  'x, y, z'
loop_
 _atom_site_type_symbol
 _atom_site_label
 _atom_site_symmetry_multiplicity
 _atom_site_fract_x
 _atom_site_fract_y
 _atom_site_fract_z
 _atom_site_occupancy
  H  H0  1  0.00000000  0.19738965  0.80261035  1
  O  O1  1  0.13959089  0.26109195  0.86160522  1
  O  O2  1  0.86040911  0.13839478  0.73890805  1
  O  O3  1  0.65984564  0.65851529  0.44664156  1
  O  O4  1  0.34015436  0.55335844  0.34148471  1
  O  O5  1  0.05006983  0.28876363  0.37991151  1
  O  O6  1  0.94993017  0.62008849  0.71123637  1
  O  O7  1  0.96502395  0.92593114  0.37383429  1
  O  O8  1  0.03497605  0.62616571  0.07406886  1
  O  O9  1  0.63901572  0.26065141  0.45527813  1
  O  O10  1  0.36098428  0.54472187  0.73934859  1
  P  P11  1  0.10481594  0.50913620  0.85403774  1
  P  P12  1  0.89518406  0.14596226  0.49086380  1
  P  P13  1  0.50000000  0.51284802  0.48715198  1
  Ga  Ga14  1  0.00000000  0.60964296  0.39035704  1
  Cs  Cs15  1  0.50000000  0.94662822  0.05337178  1
