# generated using pymatgen
data_Na2Ca2(CO3)3
_symmetry_space_group_name_H-M   'P 1'
_cell_length_a   5.00689680
_cell_length_b   6.63845451
_cell_length_c   6.63845351
_cell_angle_alpha   114.34371948
_cell_angle_beta   90.00000000
_cell_angle_gamma   90.00000000
_symmetry_Int_Tables_number   1
_chemical_formula_structural   Na2Ca2(CO3)3
_chemical_formula_sum   'Na2 Ca2 C3 O9'
_cell_volume   201.03114559
_cell_formula_units_Z   1
loop_
 _symmetry_equiv_pos_site_id
 _symmetry_equiv_pos_as_xyz
  1  'x, y, z'
loop_
 _atom_site_type_symbol
 _atom_site_label
 _atom_site_symmetry_multiplicity
 _atom_site_fract_x
 _atom_site_fract_y
 _atom_site_fract_z
 _atom_site_occupancy
  Na  Na0  1  0.00000000  0.92587672  0.92587672  1
  Na  Na1  1  0.50000000  0.61237061  0.61237061  1
  Ca  Ca2  1  0.50000000  0.21500878  0.78224733  1
  Ca  Ca3  1  0.50000000  0.78224733  0.21500878  1
  C  C4  1  0.00000000  0.87390161  0.46571074  1
  C  C5  1  0.00000000  0.46571074  0.87390161  1
  C  C6  1  0.50000000  0.22572510  0.22572510  1
  O  O7  1  0.50000000  0.41322455  0.21018183  1
  O  O8  1  0.50000000  0.21018183  0.41322455  1
  O  O9  1  0.00000000  0.87662631  0.27246413  1
  O  O10  1  0.50000000  0.04183738  0.04183738  1
  O  O11  1  0.00000000  0.27246413  0.87662631  1
  O  O12  1  0.22610742  0.86961774  0.56084471  1
  O  O13  1  0.77389258  0.56084471  0.86961774  1
  O  O14  1  0.77389258  0.86961774  0.56084471  1
  O  O15  1  0.22610742  0.56084471  0.86961774  1
