# generated using pymatgen
data_Li4MnO2F3
_symmetry_space_group_name_H-M   'P 1'
_cell_length_a   3.94598666
_cell_length_b   5.10553191
_cell_length_c   5.26860351
_cell_angle_alpha   95.98179485
_cell_angle_beta   112.01526140
_cell_angle_gamma   67.36715774
_symmetry_Int_Tables_number   1
_chemical_formula_structural   Li4MnO2F3
_chemical_formula_sum   'Li4 Mn1 O2 F3'
_cell_volume   90.72607829
_cell_formula_units_Z   1
loop_
 _symmetry_equiv_pos_site_id
 _symmetry_equiv_pos_as_xyz
  1  'x, y, z'
loop_
 _atom_site_type_symbol
 _atom_site_label
 _atom_site_symmetry_multiplicity
 _atom_site_fract_x
 _atom_site_fract_y
 _atom_site_fract_z
 _atom_site_occupancy
  Li  Li0  1  0.60422560  0.20310974  0.41542151  1
  Li  Li1  1  0.78631421  0.60382251  0.18286611  1
  Li  Li2  1  0.19534655  0.38470874  0.77892325  1
  Li  Li3  1  0.42239022  0.77246144  0.62352190  1
  Mn  Mn4  1  0.98037894  0.02794393  0.99305845  1
  O  O5  1  0.50182693  0.99818303  0.00617068  1
  O  O6  1  0.71425492  0.37755891  0.80852810  1
  F  F7  1  0.09297522  0.21223273  0.40078063  1
  F  F8  1  0.28334894  0.63577387  0.21085898  1
  F  F9  1  0.90106649  0.79314311  0.60004137  1
