# generated using pymatgen
data_C3N4
_symmetry_space_group_name_H-M   'P 1'
_cell_length_a   4.78436432
_cell_length_b   4.78436390
_cell_length_c   7.07749381
_cell_angle_alpha   90.00000000
_cell_angle_beta   90.00000000
_cell_angle_gamma   120.00000289
_symmetry_Int_Tables_number   1
_chemical_formula_structural   C3N4
_chemical_formula_sum   'C6 N8'
_cell_volume   140.30028886
_cell_formula_units_Z   2
loop_
 _symmetry_equiv_pos_site_id
 _symmetry_equiv_pos_as_xyz
  1  'x, y, z'
loop_
 _atom_site_type_symbol
 _atom_site_label
 _atom_site_symmetry_multiplicity
 _atom_site_fract_x
 _atom_site_fract_y
 _atom_site_fract_z
 _atom_site_occupancy
  C  C0  1  0.49004634  0.98009267  0.50000000  1
  C  C1  1  0.49004634  0.50995366  0.50000000  1
  C  C2  1  0.82365446  0.17634554  0.00000000  1
  C  C3  1  0.82365446  0.64730893  0.00000000  1
  C  C4  1  0.01990733  0.50995366  0.50000000  1
  C  C5  1  0.35269107  0.17634554  0.00000000  1
  N  N6  1  0.50342482  0.49657518  0.00000000  1
  N  N7  1  0.17021022  0.34042043  0.50000000  1
  N  N8  1  0.17021022  0.82978978  0.50000000  1
  N  N9  1  0.00000000  0.00000000  0.00000000  1
  N  N10  1  0.66666700  0.33333300  0.50000000  1
  N  N11  1  0.99315035  0.49657518  0.00000000  1
  N  N12  1  0.65957957  0.82978978  0.50000000  1
  N  N13  1  0.50342482  0.00684965  0.00000000  1
