# generated using pymatgen
data_Sr3TaGa3(SiO7)2
_symmetry_space_group_name_H-M   'P 1'
_cell_length_a   8.41219388
_cell_length_b   8.41219388
_cell_length_c   5.12950258
_cell_angle_alpha   90.00000000
_cell_angle_beta   90.00000000
_cell_angle_gamma   120.00000001
_symmetry_Int_Tables_number   1
_chemical_formula_structural   Sr3TaGa3(SiO7)2
_chemical_formula_sum   'Sr3 Ta1 Ga3 Si2 O14'
_cell_volume   314.35793789
_cell_formula_units_Z   1
loop_
 _symmetry_equiv_pos_site_id
 _symmetry_equiv_pos_as_xyz
  1  'x, y, z'
loop_
 _atom_site_type_symbol
 _atom_site_label
 _atom_site_symmetry_multiplicity
 _atom_site_fract_x
 _atom_site_fract_y
 _atom_site_fract_z
 _atom_site_occupancy
  O  O0  1  0.09636628  0.22165478  0.23012190  1
  O  O1  1  0.77834522  0.87471150  0.23012190  1
  O  O2  1  0.12528850  0.90363372  0.23012190  1
  O  O3  1  0.87471150  0.77834522  0.76987810  1
  O  O4  1  0.90363372  0.12528850  0.76987810  1
  O  O5  1  0.22165478  0.09636628  0.76987810  1
  O  O6  1  0.31032662  0.47609320  0.66991037  1
  O  O7  1  0.52390680  0.83423342  0.66991037  1
  O  O8  1  0.16576658  0.68967338  0.66991037  1
  O  O9  1  0.33333333  0.66666667  0.22117292  1
  O  O10  1  0.66666667  0.33333333  0.77882708  1
  O  O11  1  0.47609320  0.31032662  0.33008963  1
  O  O12  1  0.68967338  0.16576658  0.33008963  1
  O  O13  1  0.83423342  0.52390680  0.33008963  1
  Si  Si14  1  0.33333333  0.66666667  0.53526724  1
  Si  Si15  1  0.66666667  0.33333333  0.46473276  1
  Ga  Ga16  1  0.25586144  0.25586144  0.50000000  1
  Ga  Ga17  1  0.00000000  0.74413856  0.50000000  1
  Ga  Ga18  1  0.74413856  0.00000000  0.50000000  1
  Sr  Sr19  1  0.57375125  0.57375125  0.00000000  1
  Sr  Sr20  1  0.42624875  0.00000000  0.00000000  1
  Sr  Sr21  1  0.00000000  0.42624875  0.00000000  1
  Ta  Ta22  1  0.00000000  0.00000000  0.00000000  1
