# generated using pymatgen
data_AuBrF6
_symmetry_space_group_name_H-M   'P 1'
_cell_length_a   5.60352200
_cell_length_b   5.79034117
_cell_length_c   9.03494717
_cell_angle_alpha   90.00000000
_cell_angle_beta   101.76180456
_cell_angle_gamma   90.00000000
_symmetry_Int_Tables_number   1
_chemical_formula_structural   AuBrF6
_chemical_formula_sum   'Au2 Br2 F12'
_cell_volume   286.99550506
_cell_formula_units_Z   2
loop_
 _symmetry_equiv_pos_site_id
 _symmetry_equiv_pos_as_xyz
  1  'x, y, z'
loop_
 _atom_site_type_symbol
 _atom_site_label
 _atom_site_symmetry_multiplicity
 _atom_site_fract_x
 _atom_site_fract_y
 _atom_site_fract_z
 _atom_site_occupancy
  F  F0  1  0.19568253  0.40822764  0.58133872  1
  F  F1  1  0.80431747  0.90822764  0.41866128  1
  F  F2  1  0.28970419  0.97601150  0.62275986  1
  F  F3  1  0.71029581  0.47601150  0.37724014  1
  F  F4  1  0.17741307  0.45000652  0.91718777  1
  F  F5  1  0.82258693  0.95000652  0.08281223  1
  F  F6  1  0.28565697  0.98965608  0.96759593  1
  F  F7  1  0.71434303  0.48965608  0.03240407  1
  F  F8  1  0.34563900  0.06043443  0.28356571  1
  F  F9  1  0.65436100  0.56043443  0.71643429  1
  F  F10  1  0.23853377  0.52906958  0.22906940  1
  F  F11  1  0.76146623  0.02906958  0.77093060  1
  Br  Br12  1  0.54745052  0.74110953  0.32643188  1
  Br  Br13  1  0.45254948  0.24110953  0.67356812  1
  Au  Au14  1  0.73647339  0.75548471  0.90517215  1
  Au  Au15  1  0.26352661  0.25548471  0.09482785  1
