# generated using pymatgen
data_Ta2MnO6
_symmetry_space_group_name_H-M   'P 1'
_cell_length_a   4.83567876
_cell_length_b   4.83567876
_cell_length_c   9.37868804
_cell_angle_alpha   90.00000000
_cell_angle_beta   90.00000000
_cell_angle_gamma   90.00000000
_symmetry_Int_Tables_number   1
_chemical_formula_structural   Ta2MnO6
_chemical_formula_sum   'Ta4 Mn2 O12'
_cell_volume   219.30926288
_cell_formula_units_Z   2
loop_
 _symmetry_equiv_pos_site_id
 _symmetry_equiv_pos_as_xyz
  1  'x, y, z'
loop_
 _atom_site_type_symbol
 _atom_site_label
 _atom_site_symmetry_multiplicity
 _atom_site_fract_x
 _atom_site_fract_y
 _atom_site_fract_z
 _atom_site_occupancy
  Ta  Ta0  1  0.00000000  0.00000000  0.00125827  1
  Ta  Ta1  1  0.00000000  0.00000000  0.66532633  1
  Ta  Ta2  1  0.50000000  0.50000000  0.16532533  1
  Ta  Ta3  1  0.50000000  0.50000000  0.50125827  1
  Mn  Mn4  1  0.00000000  0.00000000  0.33329592  1
  Mn  Mn5  1  0.50000000  0.50000000  0.83329592  1
  O  O6  1  0.18401652  0.81598348  0.83334198  1
  O  O7  1  0.20727255  0.79272745  0.15093838  1
  O  O8  1  0.20727719  0.79272281  0.51577988  1
  O  O9  1  0.29272281  0.29272281  0.01577988  1
  O  O10  1  0.31598348  0.31598348  0.33334198  1
  O  O11  1  0.29272745  0.29272745  0.65093838  1
  O  O12  1  0.68401652  0.68401652  0.33334198  1
  O  O13  1  0.70727255  0.70727255  0.65093838  1
  O  O14  1  0.70727719  0.70727719  0.01577988  1
  O  O15  1  0.79272281  0.20727719  0.51577988  1
  O  O16  1  0.79272745  0.20727255  0.15093838  1
  O  O17  1  0.81598348  0.18401652  0.83334198  1
