# generated using pymatgen
data_Sc2P7Ru12
_symmetry_space_group_name_H-M   'P 1'
_cell_length_a   9.36185393
_cell_length_b   9.36185393
_cell_length_c   3.91757700
_cell_angle_alpha   90.00000000
_cell_angle_beta   90.00000000
_cell_angle_gamma   120.00000003
_symmetry_Int_Tables_number   1
_chemical_formula_structural   Sc2P7Ru12
_chemical_formula_sum   'Sc2 P7 Ru12'
_cell_volume   297.35270552
_cell_formula_units_Z   1
loop_
 _symmetry_equiv_pos_site_id
 _symmetry_equiv_pos_as_xyz
  1  'x, y, z'
loop_
 _atom_site_type_symbol
 _atom_site_label
 _atom_site_symmetry_multiplicity
 _atom_site_fract_x
 _atom_site_fract_y
 _atom_site_fract_z
 _atom_site_occupancy
  P  P0  1  0.59751660  0.71790852  0.50000000  1
  P  P1  1  0.00000000  0.00000000  0.00000000  1
  P  P2  1  0.28209148  0.87960808  0.50000000  1
  P  P3  1  0.12039192  0.40248340  0.50000000  1
  P  P4  1  0.88221002  0.57301021  0.00000000  1
  P  P5  1  0.42698979  0.30919981  0.00000000  1
  P  P6  1  0.69080019  0.11778998  0.00000000  1
  Sc  Sc7  1  0.66666667  0.33333333  0.50000000  1
  Sc  Sc8  1  0.33333333  0.66666667  0.00000000  1
  Ru  Ru9  1  0.55375857  0.94663029  0.50000000  1
  Ru  Ru10  1  0.39287172  0.44624143  0.50000000  1
  Ru  Ru11  1  0.91363866  0.12270774  0.50000000  1
  Ru  Ru12  1  0.20906908  0.08636134  0.50000000  1
  Ru  Ru13  1  0.87729226  0.79093092  0.50000000  1
  Ru  Ru14  1  0.72600760  0.89069644  0.00000000  1
  Ru  Ru15  1  0.10930356  0.83531116  0.00000000  1
  Ru  Ru16  1  0.16468884  0.27399240  0.00000000  1
  Ru  Ru17  1  0.42748345  0.06854484  0.00000000  1
  Ru  Ru18  1  0.93145516  0.35893860  0.00000000  1
  Ru  Ru19  1  0.64106140  0.57251655  0.00000000  1
  Ru  Ru20  1  0.05336971  0.60712828  0.50000000  1
