# generated using pymatgen
data_MnAl2O4
_symmetry_space_group_name_H-M   'P 1'
_cell_length_a   5.87327634
_cell_length_b   5.87330216
_cell_length_c   5.87327660
_cell_angle_alpha   119.99985091
_cell_angle_beta   90.00000000
_cell_angle_gamma   60.00014543
_symmetry_Int_Tables_number   1
_chemical_formula_structural   MnAl2O4
_chemical_formula_sum   'Mn2 Al4 O8'
_cell_volume   143.26172263
_cell_formula_units_Z   2
loop_
 _symmetry_equiv_pos_site_id
 _symmetry_equiv_pos_as_xyz
  1  'x, y, z'
loop_
 _atom_site_type_symbol
 _atom_site_label
 _atom_site_symmetry_multiplicity
 _atom_site_fract_x
 _atom_site_fract_y
 _atom_site_fract_z
 _atom_site_occupancy
  Mn  Mn0  1  0.00000000  0.00000000  0.00000000  1
  Mn  Mn1  1  0.75000000  0.50000000  0.75000000  1
  Al  Al2  1  0.37500000  0.25000000  0.37500000  1
  Al  Al3  1  0.37500000  0.25000000  0.87500000  1
  Al  Al4  1  0.37500000  0.75000000  0.37500000  1
  Al  Al5  1  0.87500000  0.75000000  0.37500000  1
  O  O6  1  0.14169884  0.28340763  0.14170331  1
  O  O7  1  0.17510647  0.21659237  0.60829669  1
  O  O8  1  0.14170331  0.71659237  0.57489353  1
  O  O9  1  0.14170331  0.71659237  0.14169884  1
  O  O10  1  0.60830116  0.21659237  0.60829669  1
  O  O11  1  0.57489353  0.28340763  0.14170331  1
  O  O12  1  0.60829669  0.78340763  0.60830116  1
  O  O13  1  0.60829669  0.78340763  0.17510647  1
