# generated using pymatgen
data_SmYO3
_symmetry_space_group_name_H-M   'P 1'
_cell_length_a   5.87908371
_cell_length_b   6.00962804
_cell_length_c   8.50855700
_cell_angle_alpha   90.00000000
_cell_angle_beta   90.00000000
_cell_angle_gamma   90.00000000
_symmetry_Int_Tables_number   1
_chemical_formula_structural   SmYO3
_chemical_formula_sum   'Sm4 Y4 O12'
_cell_volume   300.61673194
_cell_formula_units_Z   4
loop_
 _symmetry_equiv_pos_site_id
 _symmetry_equiv_pos_as_xyz
  1  'x, y, z'
loop_
 _atom_site_type_symbol
 _atom_site_label
 _atom_site_symmetry_multiplicity
 _atom_site_fract_x
 _atom_site_fract_y
 _atom_site_fract_z
 _atom_site_occupancy
  Sm  Sm0  1  0.99520575  0.46606628  0.51911868  1
  Sm  Sm1  1  0.50479425  0.96606628  0.51911868  1
  Sm  Sm2  1  0.49520575  0.03393372  0.01911868  1
  Sm  Sm3  1  0.00479425  0.53393372  0.01911868  1
  Y  Y4  1  0.00118609  0.97873919  0.78690186  1
  Y  Y5  1  0.49881391  0.47873919  0.78690186  1
  Y  Y6  1  0.50118609  0.52126081  0.28690186  1
  Y  Y7  1  0.99881391  0.02126081  0.28690186  1
  O  O8  1  0.15102850  0.37687030  0.24824715  1
  O  O9  1  0.13280030  0.08552822  0.54630652  1
  O  O10  1  0.20698918  0.26212963  0.88780580  1
  O  O11  1  0.29301082  0.76212963  0.88780580  1
  O  O12  1  0.36719970  0.58552822  0.54630652  1
  O  O13  1  0.34897150  0.87687030  0.24824715  1
  O  O14  1  0.65102850  0.12312970  0.74824715  1
  O  O15  1  0.63280030  0.41447178  0.04630652  1
  O  O16  1  0.70698918  0.23787037  0.38780580  1
  O  O17  1  0.79301082  0.73787037  0.38780580  1
  O  O18  1  0.86719970  0.91447178  0.04630652  1
  O  O19  1  0.84897150  0.62312970  0.74824715  1
