# generated using pymatgen
data_BrF5
_symmetry_space_group_name_H-M   'P 1'
_cell_length_a   5.03968973
_cell_length_b   5.03968973
_cell_length_c   7.99567448
_cell_angle_alpha   90.00000000
_cell_angle_beta   90.00000000
_cell_angle_gamma   96.17788057
_symmetry_Int_Tables_number   1
_chemical_formula_structural   BrF5
_chemical_formula_sum   'Br2 F10'
_cell_volume   201.89856107
_cell_formula_units_Z   2
loop_
 _symmetry_equiv_pos_site_id
 _symmetry_equiv_pos_as_xyz
  1  'x, y, z'
loop_
 _atom_site_type_symbol
 _atom_site_label
 _atom_site_symmetry_multiplicity
 _atom_site_fract_x
 _atom_site_fract_y
 _atom_site_fract_z
 _atom_site_occupancy
  F  F0  1  0.08269093  0.45725045  0.24100272  1
  F  F1  1  0.91730907  0.54274955  0.74100272  1
  F  F2  1  0.34865015  0.65134985  0.60443661  1
  F  F3  1  0.65134985  0.34865015  0.10443661  1
  F  F4  1  0.34406412  0.65593588  0.90973854  1
  F  F5  1  0.65593588  0.34406412  0.40973854  1
  F  F6  1  0.02569661  0.97430339  0.56383384  1
  F  F7  1  0.97430339  0.02569661  0.06383384  1
  F  F8  1  0.45725045  0.08269093  0.74100272  1
  F  F9  1  0.54274955  0.91730907  0.24100272  1
  Br  Br10  1  0.82642933  0.17357067  0.24998557  1
  Br  Br11  1  0.17357067  0.82642933  0.74998557  1
