# generated using pymatgen
data_Li2MnO2F
_symmetry_space_group_name_H-M   'P 1'
_cell_length_a   5.08226553
_cell_length_b   5.23283304
_cell_length_c   10.06470582
_cell_angle_alpha   83.55203550
_cell_angle_beta   29.13778751
_cell_angle_gamma   97.57063980
_symmetry_Int_Tables_number   1
_chemical_formula_structural   Li2MnO2F
_chemical_formula_sum   'Li4 Mn2 O4 F2'
_cell_volume   113.96074767
_cell_formula_units_Z   2
loop_
 _symmetry_equiv_pos_site_id
 _symmetry_equiv_pos_as_xyz
  1  'x, y, z'
loop_
 _atom_site_type_symbol
 _atom_site_label
 _atom_site_symmetry_multiplicity
 _atom_site_fract_x
 _atom_site_fract_y
 _atom_site_fract_z
 _atom_site_occupancy
  Li  Li0  1  0.49922250  0.49893490  0.50034945  1
  Li  Li1  1  0.99942454  0.49957726  0.00033303  1
  Li  Li2  1  0.13999482  0.14001206  0.18006835  1
  Li  Li3  1  0.85742136  0.85752141  0.82127540  1
  Mn  Mn4  1  0.36146567  0.86109022  0.31933088  1
  Mn  Mn5  1  0.63716142  0.13726809  0.68148380  1
  O  O6  1  0.63898885  0.84482411  0.56352188  1
  O  O7  1  0.05029750  0.84435395  0.09207927  1
  O  O8  1  0.35948151  0.15356637  0.43745058  1
  O  O9  1  0.94752904  0.15330980  0.90911620  1
  F  F10  1  0.24023621  0.49920331  0.25568252  1
  F  F11  1  0.75771057  0.49860252  0.74525764  1
