# generated using pymatgen
data_Be(HO)2
_symmetry_space_group_name_H-M   'P 1'
_cell_length_a   4.58686975
_cell_length_b   4.68564165
_cell_length_c   6.99671806
_cell_angle_alpha   90.00000000
_cell_angle_beta   90.00000000
_cell_angle_gamma   90.00000000
_symmetry_Int_Tables_number   1
_chemical_formula_structural   Be(HO)2
_chemical_formula_sum   'Be4 H8 O8'
_cell_volume   150.37645875
_cell_formula_units_Z   4
loop_
 _symmetry_equiv_pos_site_id
 _symmetry_equiv_pos_as_xyz
  1  'x, y, z'
loop_
 _atom_site_type_symbol
 _atom_site_label
 _atom_site_symmetry_multiplicity
 _atom_site_fract_x
 _atom_site_fract_y
 _atom_site_fract_z
 _atom_site_occupancy
  Be  Be0  1  0.96034625  0.20648792  0.87299232  1
  Be  Be1  1  0.53965375  0.79351208  0.37299232  1
  Be  Be2  1  0.46034625  0.29351208  0.12700768  1
  Be  Be3  1  0.03965375  0.70648792  0.62700768  1
  H  H4  1  0.72021385  0.59277595  0.93618421  1
  H  H5  1  0.77978615  0.40722405  0.43618421  1
  H  H6  1  0.22021385  0.90722405  0.06381579  1
  H  H7  1  0.27978615  0.09277595  0.56381579  1
  H  H8  1  0.64778172  0.93039292  0.71418448  1
  H  H9  1  0.85221828  0.06960708  0.21418448  1
  H  H10  1  0.14778172  0.56960708  0.28581552  1
  H  H11  1  0.35221828  0.43039292  0.78581552  1
  O  O12  1  0.82612144  0.61037745  0.44705925  1
  O  O13  1  0.67387856  0.38962255  0.94705925  1
  O  O14  1  0.32612144  0.88962255  0.55294075  1
  O  O15  1  0.17387856  0.11037745  0.05294075  1
  O  O16  1  0.84711117  0.91789486  0.76719874  1
  O  O17  1  0.65288883  0.08210514  0.26719874  1
  O  O18  1  0.34711117  0.58210514  0.23280126  1
  O  O19  1  0.15288883  0.41789486  0.73280126  1
