# generated using pymatgen
data_PH2F3
_symmetry_space_group_name_H-M   'P 1'
_cell_length_a   5.08984912
_cell_length_b   5.08984912
_cell_length_c   6.27863830
_cell_angle_alpha   90.00000000
_cell_angle_beta   90.00000000
_cell_angle_gamma   107.56944396
_symmetry_Int_Tables_number   1
_chemical_formula_structural   PH2F3
_chemical_formula_sum   'P2 H4 F6'
_cell_volume   155.07024279
_cell_formula_units_Z   2
loop_
 _symmetry_equiv_pos_site_id
 _symmetry_equiv_pos_as_xyz
  1  'x, y, z'
loop_
 _atom_site_type_symbol
 _atom_site_label
 _atom_site_symmetry_multiplicity
 _atom_site_fract_x
 _atom_site_fract_y
 _atom_site_fract_z
 _atom_site_occupancy
  H  H0  1  0.82167508  0.59426142  0.26706457  1
  H  H1  1  0.17832492  0.40573858  0.76706457  1
  H  H2  1  0.40573858  0.17832492  0.26706457  1
  H  H3  1  0.59426142  0.82167508  0.76706457  1
  F  F4  1  0.64918753  0.35081247  0.98896422  1
  F  F5  1  0.72516951  0.27483049  0.50920128  1
  F  F6  1  0.12270835  0.87729165  0.70121801  1
  F  F7  1  0.87729165  0.12270835  0.20121801  1
  F  F8  1  0.27483049  0.72516951  0.00920128  1
  F  F9  1  0.35081247  0.64918753  0.48896422  1
  P  P10  1  0.68818083  0.31181917  0.24948736  1
  P  P11  1  0.31181917  0.68818083  0.74948736  1
