# generated using pymatgen
data_Mn2Nb2Zn2O9
_symmetry_space_group_name_H-M   'P 1'
_cell_length_a   5.32158021
_cell_length_b   5.32157965
_cell_length_c   14.57756000
_cell_angle_alpha   90.00000000
_cell_angle_beta   90.00000000
_cell_angle_gamma   119.99999718
_symmetry_Int_Tables_number   1
_chemical_formula_structural   Mn2Nb2Zn2O9
_chemical_formula_sum   'Mn4 Nb4 Zn4 O18'
_cell_volume   357.51697025
_cell_formula_units_Z   2
loop_
 _symmetry_equiv_pos_site_id
 _symmetry_equiv_pos_as_xyz
  1  'x, y, z'
loop_
 _atom_site_type_symbol
 _atom_site_label
 _atom_site_symmetry_multiplicity
 _atom_site_fract_x
 _atom_site_fract_y
 _atom_site_fract_z
 _atom_site_occupancy
  Mn  Mn0  1  0.33333300  0.66666700  0.01759574  1
  Mn  Mn1  1  0.33333300  0.66666700  0.51759574  1
  Mn  Mn2  1  0.66666700  0.33333300  0.98872588  1
  Mn  Mn3  1  0.66666700  0.33333300  0.48872588  1
  Nb  Nb4  1  0.00000000  0.00000000  0.64397512  1
  Nb  Nb5  1  0.00000000  0.00000000  0.14397512  1
  Nb  Nb6  1  0.00000000  0.00000000  0.86172648  1
  Nb  Nb7  1  0.00000000  0.00000000  0.36172648  1
  Zn  Zn8  1  0.66666700  0.33333300  0.71024431  1
  Zn  Zn9  1  0.33333300  0.66666700  0.29791573  1
  Zn  Zn10  1  0.33333300  0.66666700  0.79791573  1
  Zn  Zn11  1  0.66666700  0.33333300  0.21024431  1
  O  O12  1  0.68886193  0.66321109  0.58829114  1
  O  O13  1  0.00038910  0.71364353  0.75293821  1
  O  O14  1  0.66246489  0.97413631  0.41710891  1
  O  O15  1  0.31167042  0.33753511  0.41710891  1
  O  O16  1  0.97434916  0.31113807  0.58829114  1
  O  O17  1  0.71325543  0.71364353  0.25293821  1
  O  O18  1  0.02586369  0.33753511  0.91710891  1
  O  O19  1  0.33678891  0.02565084  0.58829114  1
  O  O20  1  0.33678891  0.31113807  0.08829114  1
  O  O21  1  0.02586369  0.68832958  0.41710891  1
  O  O22  1  0.66246489  0.68832958  0.91710891  1
  O  O23  1  0.68886193  0.02565084  0.08829114  1
  O  O24  1  0.71325543  0.99961090  0.75293821  1
  O  O25  1  0.28635647  0.28674457  0.75293821  1
  O  O26  1  0.28635647  0.99961090  0.25293821  1
  O  O27  1  0.97434916  0.66321109  0.08829114  1
  O  O28  1  0.00038910  0.28674457  0.25293821  1
  O  O29  1  0.31167042  0.97413631  0.91710891  1
