# generated using pymatgen
data_GeS2
_symmetry_space_group_name_H-M   'P 1'
_cell_length_a   6.95727074
_cell_length_b   6.95852676
_cell_length_c   22.90046773
_cell_angle_alpha   90.00000000
_cell_angle_beta   90.00000000
_cell_angle_gamma   116.25058777
_symmetry_Int_Tables_number   1
_chemical_formula_structural   GeS2
_chemical_formula_sum   'Ge12 S24'
_cell_volume   994.32689403
_cell_formula_units_Z   12
loop_
 _symmetry_equiv_pos_site_id
 _symmetry_equiv_pos_as_xyz
  1  'x, y, z'
loop_
 _atom_site_type_symbol
 _atom_site_label
 _atom_site_symmetry_multiplicity
 _atom_site_fract_x
 _atom_site_fract_y
 _atom_site_fract_z
 _atom_site_occupancy
  Ge  Ge0  1  0.74858456  0.25210368  0.73800486  1
  Ge  Ge1  1  0.37306688  0.61895324  0.37516296  1
  Ge  Ge2  1  0.86637507  0.61344549  0.12519534  1
  Ge  Ge3  1  -0.00007201  0.99084329  0.01196143  1
  Ge  Ge4  1  0.86637507  0.11344549  0.87480466  1
  Ge  Ge5  1  0.37306688  0.11895324  0.62483704  1
  Ge  Ge6  1  -0.00007201  0.49084329  0.98803857  1
  Ge  Ge7  1  0.50846812  0.99793141  0.48773558  1
  Ge  Ge8  1  0.24811477  0.25042902  0.76229491  1
  Ge  Ge9  1  0.50846812  0.49793141  0.51226442  1
  Ge  Ge10  1  0.74858456  0.75210368  0.26199514  1
  Ge  Ge11  1  0.24811477  0.75042902  0.23770509  1
  S  S12  1  0.17979723  0.10952552  0.85230939  1
  S  S13  1  0.10046009  0.47535949  0.74654830  1
  S  S14  1  0.68785071  0.11858975  0.64721328  1
  S  S15  1  0.68785071  0.61858975  0.35278672  1
  S  S16  1  0.59987807  0.97563917  0.24535179  1
  S  S17  1  0.23258990  0.88296256  0.55119266  1
  S  S18  1  0.73261631  0.84976426  0.50419200  1
  S  S19  1  0.72518200  0.37571473  0.05190344  1
  S  S20  1  0.72518200  0.87571473  0.94809656  1
  S  S21  1  0.37135971  0.43341032  0.60268510  1
  S  S22  1  0.17979723  0.60952552  0.14769061  1
  S  S23  1  0.23258990  0.38296256  0.44880734  1
  S  S24  1  0.37135971  0.93341032  0.39731490  1
  S  S25  1  0.86220278  0.92628420  0.10231033  1
  S  S26  1  0.13593393  0.97662534  0.69819505  1
  S  S27  1  0.86220278  0.42628420  0.89768967  1
  S  S28  1  0.73261631  0.34976426  0.49580800  1
  S  S29  1  0.63055581  0.47479217  0.19898709  1
  S  S30  1  0.22433607  0.84262635  0.99611120  1
  S  S31  1  0.59987807  0.47563917  0.75464821  1
  S  S32  1  0.13593393  0.47662534  0.30180495  1
  S  S33  1  0.22433607  0.34262635  0.00388880  1
  S  S34  1  0.10046009  0.97535949  0.25345170  1
  S  S35  1  0.63055581  0.97479217  0.80101291  1
