# generated using pymatgen
data_CrSbO4
_symmetry_space_group_name_H-M   'P 1'
_cell_length_a   5.06800552
_cell_length_b   10.15761908
_cell_length_c   9.66607916
_cell_angle_alpha   17.89521180
_cell_angle_beta   31.20418039
_cell_angle_gamma   35.51672513
_symmetry_Int_Tables_number   1
_chemical_formula_structural   CrSbO4
_chemical_formula_sum   'Cr1 Sb1 O4'
_cell_volume   79.21624537
_cell_formula_units_Z   1
loop_
 _symmetry_equiv_pos_site_id
 _symmetry_equiv_pos_as_xyz
  1  'x, y, z'
loop_
 _atom_site_type_symbol
 _atom_site_label
 _atom_site_symmetry_multiplicity
 _atom_site_fract_x
 _atom_site_fract_y
 _atom_site_fract_z
 _atom_site_occupancy
  Cr  Cr0  1  0.50008002  0.99979969  0.50016890  1
  Sb  Sb1  1  0.50001072  0.50005438  0.49993588  1
  O  O2  1  0.24650023  0.00003793  0.23414027  1
  O  O3  1  0.22245611  0.50001179  0.23750357  1
  O  O4  1  0.75344457  0.00006040  0.76578888  1
  O  O5  1  0.77750835  0.50003581  0.76246249  1
