# generated using pymatgen
data_KPH2SO3
_symmetry_space_group_name_H-M   'P 1'
_cell_length_a   4.58214725
_cell_length_b   4.58214725
_cell_length_c   6.01697066
_cell_angle_alpha   76.94930134
_cell_angle_beta   103.05069866
_cell_angle_gamma   91.85072642
_symmetry_Int_Tables_number   1
_chemical_formula_structural   KPH2SO3
_chemical_formula_sum   'K1 P1 H2 S1 O3'
_cell_volume   119.86758386
_cell_formula_units_Z   1
loop_
 _symmetry_equiv_pos_site_id
 _symmetry_equiv_pos_as_xyz
  1  'x, y, z'
loop_
 _atom_site_type_symbol
 _atom_site_label
 _atom_site_symmetry_multiplicity
 _atom_site_fract_x
 _atom_site_fract_y
 _atom_site_fract_z
 _atom_site_occupancy
  K  K0  1  0.15274306  0.84725694  0.38809306  1
  P  P1  1  0.65513867  0.34486133  0.88879219  1
  H  H2  1  0.17031170  0.20697957  0.81107998  1
  H  H3  1  0.79302043  0.82968830  0.81107998  1
  S  S4  1  0.61519385  0.38480615  0.20200593  1
  O  O5  1  0.89291608  0.10708392  0.89604013  1
  O  O6  1  0.34882697  0.26232076  0.73045937  1
  O  O7  1  0.73767924  0.65117303  0.73045937  1
