# generated using pymatgen
data_Li3NbO4
_symmetry_space_group_name_H-M   'P 1'
_cell_length_a   7.38643099
_cell_length_b   7.38643099
_cell_length_c   7.38643099
_cell_angle_alpha   109.47122061
_cell_angle_beta   109.47122062
_cell_angle_gamma   109.47122064
_symmetry_Int_Tables_number   1
_chemical_formula_structural   Li3NbO4
_chemical_formula_sum   'Li12 Nb4 O16'
_cell_volume   310.22875014
_cell_formula_units_Z   4
loop_
 _symmetry_equiv_pos_site_id
 _symmetry_equiv_pos_as_xyz
  1  'x, y, z'
loop_
 _atom_site_type_symbol
 _atom_site_label
 _atom_site_symmetry_multiplicity
 _atom_site_fract_x
 _atom_site_fract_y
 _atom_site_fract_z
 _atom_site_occupancy
  Li  Li0  1  0.72899016  0.72991268  0.24314634  1
  Li  Li1  1  0.51323365  0.27008732  0.99907747  1
  Li  Li2  1  0.27100984  0.51415618  0.00092253  1
  Li  Li3  1  0.48584382  0.75685366  0.48676635  1
  Li  Li4  1  0.48676635  0.48584382  0.75685366  1
  Li  Li5  1  0.72991268  0.24314634  0.72899016  1
  Li  Li6  1  0.00092253  0.27100984  0.51415618  1
  Li  Li7  1  0.27008732  0.99907747  0.51323365  1
  Li  Li8  1  0.24314634  0.72899016  0.72991268  1
  Li  Li9  1  0.51415618  0.00092253  0.27100984  1
  Li  Li10  1  0.99907747  0.51323365  0.27008732  1
  Li  Li11  1  0.75685366  0.48676635  0.48584382  1
  O  O12  1  0.48576597  0.48584481  0.24613352  1
  O  O13  1  0.75386648  0.23971128  0.23963244  1
  O  O14  1  -0.00007884  0.76028872  0.51415519  1
  O  O15  1  1.00007884  0.51423403  0.76036756  1
  O  O16  1  0.77271926  0.77271926  0.77271926  1
  O  O17  1  0.00000000  0.22728074  0.00000000  1
  O  O18  1  0.00000000  0.00000000  0.22728074  1
  O  O19  1  0.22728074  0.00000000  0.00000000  1
  O  O20  1  0.24613352  0.48576597  0.48584481  1
  O  O21  1  0.76028872  0.51415519  -0.00007884  1
  O  O22  1  0.76036756  1.00007884  0.51423403  1
  O  O23  1  0.23971128  0.23963244  0.75386648  1
  O  O24  1  0.51415519  -0.00007884  0.76028872  1
  O  O25  1  0.51423403  0.76036756  1.00007884  1
  O  O26  1  0.23963244  0.75386648  0.23971128  1
  O  O27  1  0.48584481  0.24613352  0.48576597  1
  Nb  Nb28  1  0.71916155  0.00000000  0.00000000  1
  Nb  Nb29  1  0.00000000  0.00000000  0.71916155  1
  Nb  Nb30  1  0.00000000  0.71916155  0.00000000  1
  Nb  Nb31  1  0.28083845  0.28083845  0.28083845  1
