# generated using pymatgen
data_BaS2
_symmetry_space_group_name_H-M   'P 1'
_cell_length_a   4.83751109
_cell_length_b   5.25840209
_cell_length_c   8.43044386
_cell_angle_alpha   79.89893986
_cell_angle_beta   73.32711165
_cell_angle_gamma   62.61423517
_symmetry_Int_Tables_number   1
_chemical_formula_structural   BaS2
_chemical_formula_sum   'Ba2 S4'
_cell_volume   182.17342439
_cell_formula_units_Z   2
loop_
 _symmetry_equiv_pos_site_id
 _symmetry_equiv_pos_as_xyz
  1  'x, y, z'
loop_
 _atom_site_type_symbol
 _atom_site_label
 _atom_site_symmetry_multiplicity
 _atom_site_fract_x
 _atom_site_fract_y
 _atom_site_fract_z
 _atom_site_occupancy
  S  S0  1  0.48319587  0.30200991  0.02011648  1
  S  S1  1  0.80532226  0.19799009  0.47988352  1
  S  S2  1  0.19467774  0.80200991  0.52011648  1
  S  S3  1  0.51680413  0.69799009  0.97988352  1
  Ba  Ba4  1  0.14103827  0.25000000  0.75000000  1
  Ba  Ba5  1  0.85896173  0.75000000  0.25000000  1
