# generated using pymatgen
data_Ho3CuSiS7
_symmetry_space_group_name_H-M   'P 1'
_cell_length_a   9.84938867
_cell_length_b   9.84938867
_cell_length_c   5.70385266
_cell_angle_alpha   90.00000000
_cell_angle_beta   90.00000000
_cell_angle_gamma   119.99999999
_symmetry_Int_Tables_number   1
_chemical_formula_structural   Ho3CuSiS7
_chemical_formula_sum   'Ho6 Si2 Cu2 S14'
_cell_volume   479.20074177
_cell_formula_units_Z   2
loop_
 _symmetry_equiv_pos_site_id
 _symmetry_equiv_pos_as_xyz
  1  'x, y, z'
loop_
 _atom_site_type_symbol
 _atom_site_label
 _atom_site_symmetry_multiplicity
 _atom_site_fract_x
 _atom_site_fract_y
 _atom_site_fract_z
 _atom_site_occupancy
  Si  Si0  1  0.33333333  0.66666667  0.33113728  1
  Si  Si1  1  0.66666667  0.33333333  0.83113728  1
  S  S2  1  0.10544508  0.58251565  0.48175104  1
  S  S3  1  0.89455492  0.41748435  0.98175104  1
  S  S4  1  0.58251565  0.47707057  0.98175104  1
  S  S5  1  0.47707057  0.89455492  0.48175104  1
  S  S6  1  0.16278095  0.90362339  0.21145061  1
  S  S7  1  0.25915757  0.16278095  0.71145061  1
  S  S8  1  0.52292943  0.10544508  0.98175104  1
  S  S9  1  0.41748435  0.52292943  0.48175104  1
  S  S10  1  0.33333333  0.66666667  0.96041285  1
  S  S11  1  0.66666667  0.33333333  0.46041285  1
  S  S12  1  0.83721905  0.09637661  0.71145061  1
  S  S13  1  0.74084243  0.83721905  0.21145061  1
  S  S14  1  0.09637661  0.25915757  0.21145061  1
  S  S15  1  0.90362339  0.74084243  0.71145061  1
  Cu  Cu16  1  0.00000000  0.00000000  0.19227723  1
  Cu  Cu17  1  0.00000000  0.00000000  0.69227723  1
  Ho  Ho18  1  0.86963746  0.64266192  0.24242256  1
  Ho  Ho19  1  0.22697553  0.86963746  0.74242256  1
  Ho  Ho20  1  0.64266192  0.77302447  0.74242256  1
  Ho  Ho21  1  0.35733808  0.22697553  0.24242256  1
  Ho  Ho22  1  0.77302447  0.13036254  0.24242256  1
  Ho  Ho23  1  0.13036254  0.35733808  0.74242256  1
