# generated using pymatgen
data_Be3Cd4Si3SO12
_symmetry_space_group_name_H-M   'P 1'
_cell_length_a   8.56041959
_cell_length_b   8.56041959
_cell_length_c   8.56041959
_cell_angle_alpha   90.00000000
_cell_angle_beta   90.00000000
_cell_angle_gamma   90.00000000
_symmetry_Int_Tables_number   1
_chemical_formula_structural   Be3Cd4Si3SO12
_chemical_formula_sum   'Be6 Cd8 Si6 S2 O24'
_cell_volume   627.31425513
_cell_formula_units_Z   2
loop_
 _symmetry_equiv_pos_site_id
 _symmetry_equiv_pos_as_xyz
  1  'x, y, z'
loop_
 _atom_site_type_symbol
 _atom_site_label
 _atom_site_symmetry_multiplicity
 _atom_site_fract_x
 _atom_site_fract_y
 _atom_site_fract_z
 _atom_site_occupancy
  Be  Be0  1  0.25000000  0.50000000  0.00000000  1
  Be  Be1  1  0.50000000  0.00000000  0.75000000  1
  Be  Be2  1  0.50000000  0.00000000  0.25000000  1
  Be  Be3  1  0.00000000  0.25000000  0.50000000  1
  Be  Be4  1  0.00000000  0.75000000  0.50000000  1
  Be  Be5  1  0.75000000  0.50000000  0.00000000  1
  O  O6  1  0.85598601  0.42922606  0.85615123  1
  O  O7  1  0.85598601  0.57077394  0.14384877  1
  O  O8  1  0.42922606  0.85615123  0.85598601  1
  O  O9  1  0.57077394  0.85615123  0.14401399  1
  O  O10  1  0.85615123  0.85598601  0.42922606  1
  O  O11  1  0.14384877  0.14401399  0.42922606  1
  O  O12  1  0.35598601  0.35615123  0.92922606  1
  O  O13  1  0.14401399  0.42922606  0.14384877  1
  O  O14  1  0.14401399  0.57077394  0.85615123  1
  O  O15  1  0.57077394  0.14384877  0.85598601  1
  O  O16  1  0.42922606  0.14384877  0.14401399  1
  O  O17  1  0.85615123  0.14401399  0.57077394  1
  O  O18  1  0.14384877  0.85598601  0.57077394  1
  O  O19  1  0.92922606  0.35598601  0.35615123  1
  O  O20  1  0.35615123  0.92922606  0.35598601  1
  O  O21  1  0.64384877  0.07077394  0.35598601  1
  O  O22  1  0.92922606  0.64401399  0.64384877  1
  O  O23  1  0.64384877  0.92922606  0.64401399  1
  O  O24  1  0.07077394  0.64401399  0.35615123  1
  O  O25  1  0.07077394  0.35598601  0.64384877  1
  O  O26  1  0.35615123  0.07077394  0.64401399  1
  O  O27  1  0.35598601  0.64384877  0.07077394  1
  O  O28  1  0.64401399  0.35615123  0.07077394  1
  O  O29  1  0.64401399  0.64384877  0.92922606  1
  Si  Si30  1  0.75000000  0.00000000  0.50000000  1
  Si  Si31  1  0.50000000  0.75000000  0.00000000  1
  Si  Si32  1  0.50000000  0.25000000  0.00000000  1
  Si  Si33  1  0.25000000  0.00000000  0.50000000  1
  Si  Si34  1  0.00000000  0.50000000  0.25000000  1
  Si  Si35  1  0.00000000  0.50000000  0.75000000  1
  S  S36  1  0.00000000  0.00000000  0.00000000  1
  S  S37  1  0.50000000  0.50000000  0.50000000  1
  Cd  Cd38  1  0.32940562  0.67059438  0.32940562  1
  Cd  Cd39  1  0.67059438  0.32940562  0.32940562  1
  Cd  Cd40  1  0.82940562  0.82940562  0.17059438  1
  Cd  Cd41  1  0.17059438  0.82940562  0.82940562  1
  Cd  Cd42  1  0.82940562  0.17059438  0.82940562  1
  Cd  Cd43  1  0.67059438  0.67059438  0.67059438  1
  Cd  Cd44  1  0.17059438  0.17059438  0.17059438  1
  Cd  Cd45  1  0.32940562  0.32940562  0.67059438  1
