# generated using pymatgen
data_Li3FeOF4
_symmetry_space_group_name_H-M   'P 1'
_cell_length_a   3.77264913
_cell_length_b   5.30677296
_cell_length_c   5.39678214
_cell_angle_alpha   94.87444544
_cell_angle_beta   110.46429807
_cell_angle_gamma   69.16615704
_symmetry_Int_Tables_number   1
_chemical_formula_structural   Li3FeOF4
_chemical_formula_sum   'Li3 Fe1 O1 F4'
_cell_volume   94.51355599
_cell_formula_units_Z   1
loop_
 _symmetry_equiv_pos_site_id
 _symmetry_equiv_pos_as_xyz
  1  'x, y, z'
loop_
 _atom_site_type_symbol
 _atom_site_label
 _atom_site_symmetry_multiplicity
 _atom_site_fract_x
 _atom_site_fract_y
 _atom_site_fract_z
 _atom_site_occupancy
  Li  Li0  1  0.63176093  0.22465603  0.42391475  1
  Li  Li1  1  0.47429099  0.74534757  0.62973261  1
  Li  Li2  1  0.82511375  0.59450095  0.18066662  1
  Fe  Fe3  1  0.01612128  0.01544500  0.98379648  1
  O  O4  1  0.55376038  0.95060619  0.99405529  1
  F  F5  1  0.08545030  0.21620990  0.32283064  1
  F  F6  1  0.34492819  0.63081669  0.25657484  1
  F  F7  1  0.73969140  0.37733763  0.79389314  1
  F  F8  1  0.90954978  0.86028805  0.61528265  1
