# generated using pymatgen
data_MgO
_symmetry_space_group_name_H-M   'P 1'
_cell_length_a   3.29264091
_cell_length_b   3.29264144
_cell_length_c   15.67592858
_cell_angle_alpha   90.00060510
_cell_angle_beta   89.99940200
_cell_angle_gamma   120.00334431
_symmetry_Int_Tables_number   1
_chemical_formula_structural   MgO
_chemical_formula_sum   'Mg6 O6'
_cell_volume   147.17636814
_cell_formula_units_Z   6
loop_
 _symmetry_equiv_pos_site_id
 _symmetry_equiv_pos_as_xyz
  1  'x, y, z'
loop_
 _atom_site_type_symbol
 _atom_site_label
 _atom_site_symmetry_multiplicity
 _atom_site_fract_x
 _atom_site_fract_y
 _atom_site_fract_z
 _atom_site_occupancy
  Mg  Mg0  1  0.33323984  0.66676919  0.35160582  1
  Mg  Mg1  1  0.33328996  0.66671056  0.02145600  1
  Mg  Mg2  1  0.99990015  0.00010280  0.18652658  1
  Mg  Mg3  1  0.99995593  0.00004523  0.51758988  1
  Mg  Mg4  1  0.00010241  0.99990047  0.85314800  1
  Mg  Mg5  1  0.66681335  0.33318262  0.68611045  1
  O  O6  1  0.33322617  0.66677070  0.14863162  1
  O  O7  1  0.33327594  0.66672316  0.47887156  1
  O  O8  1  0.99996993  0.00002861  0.98206532  1
  O  O9  1  0.99990805  0.00008922  0.31362180  1
  O  O10  1  0.00013623  0.99986101  0.64635746  1
  O  O11  1  0.66678104  0.33321842  0.81398550  1
