# generated using pymatgen
data_BaLaAlO4
_symmetry_space_group_name_H-M   'P 1'
_cell_length_a   5.88119585
_cell_length_b   7.34188167
_cell_length_c   9.92757971
_cell_angle_alpha   90.00000000
_cell_angle_beta   90.00000000
_cell_angle_gamma   90.00000000
_symmetry_Int_Tables_number   1
_chemical_formula_structural   BaLaAlO4
_chemical_formula_sum   'Ba4 La4 Al4 O16'
_cell_volume   428.66340120
_cell_formula_units_Z   4
loop_
 _symmetry_equiv_pos_site_id
 _symmetry_equiv_pos_as_xyz
  1  'x, y, z'
loop_
 _atom_site_type_symbol
 _atom_site_label
 _atom_site_symmetry_multiplicity
 _atom_site_fract_x
 _atom_site_fract_y
 _atom_site_fract_z
 _atom_site_occupancy
  O  O0  1  0.00909144  0.74064673  0.07679033  1
  O  O1  1  0.50909144  0.25935327  0.42320967  1
  O  O2  1  0.49090856  0.24064673  0.92320967  1
  O  O3  1  0.99090856  0.75935327  0.57679033  1
  O  O4  1  0.37842067  0.99580299  0.20199616  1
  O  O5  1  0.87842067  0.00419701  0.29800384  1
  O  O6  1  0.12157933  0.49580299  0.79800384  1
  O  O7  1  0.62157933  0.50419701  0.70199616  1
  O  O8  1  0.48998632  0.68399703  0.06342573  1
  O  O9  1  0.98998632  0.31600297  0.43657427  1
  O  O10  1  0.01001368  0.18399703  0.93657427  1
  O  O11  1  0.51001368  0.81600297  0.56342573  1
  O  O12  1  0.74409415  0.83731937  0.82530264  1
  O  O13  1  0.24409415  0.16268063  0.67469736  1
  O  O14  1  0.75590585  0.33731937  0.17469736  1
  O  O15  1  0.25590585  0.66268063  0.32530264  1
  Al  Al16  1  0.26884921  0.77645601  0.16625032  1
  Al  Al17  1  0.76884921  0.22354399  0.33374968  1
  Al  Al18  1  0.23115079  0.27645601  0.83374968  1
  Al  Al19  1  0.73115079  0.72354399  0.66625032  1
  Ba  Ba20  1  0.26345072  0.33266758  0.16947489  1
  Ba  Ba21  1  0.73654928  0.16733242  0.66947489  1
  Ba  Ba22  1  0.76345072  0.66733242  0.33052511  1
  Ba  Ba23  1  0.23654928  0.83266758  0.83052511  1
  La  La24  1  0.76288578  0.50367965  0.94811654  1
  La  La25  1  0.73711422  0.00367965  0.05188346  1
  La  La26  1  0.23711422  0.99632035  0.44811654  1
  La  La27  1  0.26288578  0.49632035  0.55188346  1
