# generated using pymatgen
data_Li3GaSiO5
_symmetry_space_group_name_H-M   'P 1'
_cell_length_a   4.92147660
_cell_length_b   5.45423991
_cell_length_c   15.80235880
_cell_angle_alpha   90.00000000
_cell_angle_beta   90.00000000
_cell_angle_gamma   90.00000000
_symmetry_Int_Tables_number   1
_chemical_formula_structural   Li3GaSiO5
_chemical_formula_sum   'Li12 Ga4 Si4 O20'
_cell_volume   424.18135965
_cell_formula_units_Z   4
loop_
 _symmetry_equiv_pos_site_id
 _symmetry_equiv_pos_as_xyz
  1  'x, y, z'
loop_
 _atom_site_type_symbol
 _atom_site_label
 _atom_site_symmetry_multiplicity
 _atom_site_fract_x
 _atom_site_fract_y
 _atom_site_fract_z
 _atom_site_occupancy
  Li  Li0  1  0.50024961  0.33355140  0.40719283  1
  Li  Li1  1  0.00024961  0.66644860  0.59280717  1
  Li  Li2  1  0.00024961  0.16644860  0.90719283  1
  Li  Li3  1  0.50024961  0.83355140  0.09280717  1
  Li  Li4  1  0.50343491  0.83451660  0.50479706  1
  Li  Li5  1  0.00343491  0.16548340  0.49520294  1
  Li  Li6  1  0.00343491  0.66548340  0.00479706  1
  Li  Li7  1  0.50343491  0.33451660  0.99520294  1
  Li  Li8  1  0.50076578  0.82422954  0.69538821  1
  Li  Li9  1  0.00076578  0.17577046  0.30461179  1
  Li  Li10  1  0.00076578  0.67577046  0.19538821  1
  Li  Li11  1  0.50076578  0.32422954  0.80461179  1
  O  O12  1  0.59474516  0.15685378  0.29638306  1
  O  O13  1  0.16305873  0.81746929  0.89436408  1
  O  O14  1  0.16305873  0.31746929  0.60563592  1
  O  O15  1  0.66305873  0.18253071  0.10563592  1
  O  O16  1  0.10291723  0.31574297  0.01486693  1
  O  O17  1  0.60291723  0.68425703  0.98513307  1
  O  O18  1  0.60291723  0.18425703  0.51486693  1
  O  O19  1  0.10291723  0.81574297  0.48513307  1
  O  O20  1  0.10048234  0.88169253  0.10144645  1
  O  O21  1  0.60048234  0.11830747  0.89855355  1
  O  O22  1  0.60048234  0.61830747  0.60144645  1
  O  O23  1  0.10048234  0.38169253  0.39855355  1
  O  O24  1  0.11755862  0.31166878  0.18674382  1
  O  O25  1  0.61755862  0.68833122  0.81325618  1
  O  O26  1  0.61755862  0.18833122  0.68674382  1
  O  O27  1  0.11755862  0.81166878  0.31325618  1
  O  O28  1  0.09474516  0.34314622  0.79638306  1
  O  O29  1  0.59474516  0.65685378  0.20361694  1
  O  O30  1  0.66305873  0.68253071  0.39436408  1
  O  O31  1  0.09474516  0.84314622  0.70361694  1
  Si  Si32  1  0.00469112  0.66635661  0.40200501  1
  Si  Si33  1  0.50469112  0.33364339  0.59799499  1
  Si  Si34  1  0.50469112  0.83364339  0.90200501  1
  Si  Si35  1  0.00469112  0.16635661  0.09799499  1
  Ga  Ga36  1  0.49909651  0.82904298  0.30067174  1
  Ga  Ga37  1  0.99909651  0.17095702  0.69932826  1
  Ga  Ga38  1  0.99909651  0.67095702  0.80067174  1
  Ga  Ga39  1  0.49909651  0.32904298  0.19932826  1
