# generated using pymatgen
data_Ge3Os2
_symmetry_space_group_name_H-M   'P 1'
_cell_length_a   5.82337344
_cell_length_b   5.82337344
_cell_length_c   9.37394907
_cell_angle_alpha   90.00000000
_cell_angle_beta   90.00000000
_cell_angle_gamma   90.00000000
_symmetry_Int_Tables_number   1
_chemical_formula_structural   Ge3Os2
_chemical_formula_sum   'Ge12 Os8'
_cell_volume   317.88634453
_cell_formula_units_Z   4
loop_
 _symmetry_equiv_pos_site_id
 _symmetry_equiv_pos_as_xyz
  1  'x, y, z'
loop_
 _atom_site_type_symbol
 _atom_site_label
 _atom_site_symmetry_multiplicity
 _atom_site_fract_x
 _atom_site_fract_y
 _atom_site_fract_z
 _atom_site_occupancy
  Os  Os0  1  0.00000000  0.50000000  0.37575687  1
  Os  Os1  1  0.50000000  0.00000000  0.62424313  1
  Os  Os2  1  0.50000000  0.00000000  0.12424313  1
  Os  Os3  1  0.00000000  0.50000000  0.87575687  1
  Os  Os4  1  0.50000000  0.50000000  0.25000000  1
  Os  Os5  1  0.50000000  0.50000000  0.75000000  1
  Os  Os6  1  0.00000000  0.00000000  0.00000000  1
  Os  Os7  1  0.00000000  0.00000000  0.50000000  1
  Ge  Ge8  1  0.21755145  0.35034188  0.08491236  1
  Ge  Ge9  1  0.35034188  0.78244855  0.91508764  1
  Ge  Ge10  1  0.64965812  0.21755145  0.91508764  1
  Ge  Ge11  1  0.78244855  0.64965812  0.08491236  1
  Ge  Ge12  1  0.35034188  0.21755145  0.41508764  1
  Ge  Ge13  1  0.64965812  0.78244855  0.41508764  1
  Ge  Ge14  1  0.78244855  0.35034188  0.58491236  1
  Ge  Ge15  1  0.21755145  0.64965812  0.58491236  1
  Ge  Ge16  1  0.17111555  0.17111555  0.75000000  1
  Ge  Ge17  1  0.17111555  0.82888445  0.25000000  1
  Ge  Ge18  1  0.82888445  0.17111555  0.25000000  1
  Ge  Ge19  1  0.82888445  0.82888445  0.75000000  1
