# generated using pymatgen
data_AsH6NO4
_symmetry_space_group_name_H-M   'P 1'
_cell_length_a   6.72078629
_cell_length_b   6.72078629
_cell_length_c   6.72078629
_cell_angle_alpha   110.80195782
_cell_angle_beta   110.80195782
_cell_angle_gamma   106.84132460
_symmetry_Int_Tables_number   1
_chemical_formula_structural   AsH6NO4
_chemical_formula_sum   'As2 H12 N2 O8'
_cell_volume   233.32192748
_cell_formula_units_Z   2
loop_
 _symmetry_equiv_pos_site_id
 _symmetry_equiv_pos_as_xyz
  1  'x, y, z'
loop_
 _atom_site_type_symbol
 _atom_site_label
 _atom_site_symmetry_multiplicity
 _atom_site_fract_x
 _atom_site_fract_y
 _atom_site_fract_z
 _atom_site_occupancy
  As  As0  1  0.75000000  0.25000000  0.50000000  1
  As  As1  1  0.00000000  0.00000000  0.00000000  1
  H  H2  1  0.21158071  0.80748887  0.37306338  1
  H  H3  1  0.31557451  0.44251113  0.90409184  1
  H  H4  1  0.43442549  0.83851733  0.62693662  1
  H  H5  1  0.53841929  0.41148267  0.09590816  1
  H  H6  1  0.16148267  0.78841929  0.59590816  1
  H  H7  1  0.55748887  0.46158071  0.87306338  1
  H  H8  1  0.19251113  0.56557451  0.40409184  1
  H  H9  1  0.58851733  0.68442549  0.12693662  1
  H  H10  1  0.71782687  0.12500000  0.09282687  1
  H  H11  1  0.03217313  0.62500000  0.90717313  1
  H  H12  1  0.37500000  0.28217313  0.40717313  1
  H  H13  1  0.87500000  0.96782687  0.59282687  1
  N  N14  1  0.25000000  0.75000000  0.50000000  1
  N  N15  1  0.50000000  0.50000000  0.00000000  1
  O  O16  1  0.70493295  0.27793940  0.24429470  1
  O  O17  1  0.71635530  0.97206060  0.92699355  1
  O  O18  1  0.03364470  0.46063825  0.75570530  1
  O  O19  1  0.04506705  0.78936175  0.07300645  1
  O  O20  1  0.53936175  0.29506705  0.57300645  1
  O  O21  1  0.02793940  0.95493295  0.74429470  1
  O  O22  1  0.72206060  0.96635530  0.42699355  1
  O  O23  1  0.21063825  0.28364470  0.25570530  1
