# generated using pymatgen
data_Zr3N4
_symmetry_space_group_name_H-M   'P 1'
_cell_length_a   5.89896581
_cell_length_b   5.89896581
_cell_length_c   5.89896581
_cell_angle_alpha   109.47122068
_cell_angle_beta   109.47122067
_cell_angle_gamma   109.47122061
_symmetry_Int_Tables_number   1
_chemical_formula_structural   Zr3N4
_chemical_formula_sum   'Zr6 N8'
_cell_volume   158.01770349
_cell_formula_units_Z   2
loop_
 _symmetry_equiv_pos_site_id
 _symmetry_equiv_pos_as_xyz
  1  'x, y, z'
loop_
 _atom_site_type_symbol
 _atom_site_label
 _atom_site_symmetry_multiplicity
 _atom_site_fract_x
 _atom_site_fract_y
 _atom_site_fract_z
 _atom_site_occupancy
  N  N0  1  0.63690119  0.63690119  0.63690119  1
  N  N1  1  0.36309881  0.50000000  0.00000000  1
  N  N2  1  0.50000000  0.00000000  0.36309881  1
  N  N3  1  0.00000000  0.36309881  0.50000000  1
  N  N4  1  0.50000000  0.00000000  0.86309881  1
  N  N5  1  0.00000000  0.86309881  0.50000000  1
  N  N6  1  0.13690119  0.13690119  0.13690119  1
  N  N7  1  0.86309881  0.50000000  0.00000000  1
  Zr  Zr8  1  0.75000000  0.87500000  0.12500000  1
  Zr  Zr9  1  0.62500000  0.37500000  0.25000000  1
  Zr  Zr10  1  0.87500000  0.12500000  0.75000000  1
  Zr  Zr11  1  0.12500000  0.75000000  0.87500000  1
  Zr  Zr12  1  0.37500000  0.25000000  0.62500000  1
  Zr  Zr13  1  0.25000000  0.62500000  0.37500000  1
