# generated using pymatgen
data_KLiSO4
_symmetry_space_group_name_H-M   'P 1'
_cell_length_a   5.21389079
_cell_length_b   5.21389078
_cell_length_c   8.81269994
_cell_angle_alpha   90.00000000
_cell_angle_beta   90.00000000
_cell_angle_gamma   119.99999999
_symmetry_Int_Tables_number   1
_chemical_formula_structural   KLiSO4
_chemical_formula_sum   'K2 Li2 S2 O8'
_cell_volume   207.47390193
_cell_formula_units_Z   2
loop_
 _symmetry_equiv_pos_site_id
 _symmetry_equiv_pos_as_xyz
  1  'x, y, z'
loop_
 _atom_site_type_symbol
 _atom_site_label
 _atom_site_symmetry_multiplicity
 _atom_site_fract_x
 _atom_site_fract_y
 _atom_site_fract_z
 _atom_site_occupancy
  Li  Li0  1  0.33333333  0.66666667  0.49323364  1
  Li  Li1  1  0.66666667  0.33333333  0.99323364  1
  O  O2  1  0.94022881  0.33945093  0.43801459  1
  O  O3  1  0.60077789  0.66054907  0.93801459  1
  O  O4  1  0.66054907  0.60077789  0.43801459  1
  O  O5  1  0.39922211  0.05977119  0.43801459  1
  O  O6  1  0.33333333  0.66666667  0.71387840  1
  O  O7  1  0.66666667  0.33333333  0.21387840  1
  O  O8  1  0.33945093  0.94022881  0.93801459  1
  O  O9  1  0.05977119  0.39922211  0.93801459  1
  S  S10  1  0.33333333  0.66666667  0.88305638  1
  S  S11  1  0.66666667  0.33333333  0.38305638  1
  K  K12  1  0.00000000  0.00000000  0.18028779  1
  K  K13  1  0.00000000  0.00000000  0.68028779  1
