# generated using pymatgen
data_Li9Fe3(OF7)2
_symmetry_space_group_name_H-M   'P 1'
_cell_length_a   5.93126608
_cell_length_b   5.99153534
_cell_length_c   10.36696289
_cell_angle_alpha   107.20618317
_cell_angle_beta   72.78997203
_cell_angle_gamma   119.53694101
_symmetry_Int_Tables_number   1
_chemical_formula_structural   Li9Fe3(OF7)2
_chemical_formula_sum   'Li9 Fe3 O2 F14'
_cell_volume   301.15853266
_cell_formula_units_Z   1
loop_
 _symmetry_equiv_pos_site_id
 _symmetry_equiv_pos_as_xyz
  1  'x, y, z'
loop_
 _atom_site_type_symbol
 _atom_site_label
 _atom_site_symmetry_multiplicity
 _atom_site_fract_x
 _atom_site_fract_y
 _atom_site_fract_z
 _atom_site_occupancy
  Li  Li0  1  0.29250562  0.66842003  0.05385563  1
  Li  Li1  1  0.06250000  0.93750000  0.31250000  1
  Li  Li2  1  0.00619634  0.02605025  0.00539529  1
  Li  Li3  1  0.11880366  0.84894975  0.61960471  1
  Li  Li4  1  0.63319785  0.35921947  0.12071199  1
  Li  Li5  1  0.49180215  0.51578053  0.50428801  1
  Li  Li6  1  0.06250000  0.43750000  0.81250000  1
  Li  Li7  1  0.83249438  0.20657997  0.57114437  1
  Li  Li8  1  0.56250000  0.43750000  0.81250000  1
  Fe  Fe9  1  0.56250000  0.93750000  0.31250000  1
  Fe  Fe10  1  0.06250000  0.43750000  0.31250000  1
  Fe  Fe11  1  0.56250000  0.93750000  0.81250000  1
  O  O12  1  0.20872637  0.78773378  0.41338919  1
  O  O13  1  0.91627363  0.08726622  0.21161081  1
  F  F14  1  0.43476130  0.56637595  0.18527626  1
  F  F15  1  0.69667943  0.83630125  0.43431457  1
  F  F16  1  0.17143490  0.30680306  0.43329051  1
  F  F17  1  0.95356510  0.56819694  0.19170949  1
  F  F18  1  0.42832057  0.03869875  0.19068543  1
  F  F19  1  0.69023870  0.30862405  0.43972374  1
  F  F20  1  0.21238176  0.81762066  0.92994162  1
  F  F21  1  0.44226661  0.58510698  0.70126850  1
  F  F22  1  0.66844514  0.81530372  0.92950038  1
  F  F23  1  0.20158020  0.33853165  0.92903735  1
  F  F24  1  0.92341980  0.53646835  0.69596265  1
  F  F25  1  0.45655486  0.05969628  0.69549962  1
  F  F26  1  0.68273339  0.28989302  0.92373150  1
  F  F27  1  0.91261824  0.05737934  0.69505838  1
