# generated using pymatgen
data_CrSbO4
_symmetry_space_group_name_H-M   'P 1'
_cell_length_a   5.58839350
_cell_length_b   5.58839353
_cell_length_c   5.58839280
_cell_angle_alpha   138.42796627
_cell_angle_beta   138.42796205
_cell_angle_gamma   60.24818380
_symmetry_Int_Tables_number   1
_chemical_formula_structural   CrSbO4
_chemical_formula_sum   'Cr1 Sb1 O4'
_cell_volume   76.04440409
_cell_formula_units_Z   1
loop_
 _symmetry_equiv_pos_site_id
 _symmetry_equiv_pos_as_xyz
  1  'x, y, z'
loop_
 _atom_site_type_symbol
 _atom_site_label
 _atom_site_symmetry_multiplicity
 _atom_site_fract_x
 _atom_site_fract_y
 _atom_site_fract_z
 _atom_site_occupancy
  Cr  Cr0  1  0.75000000  0.25000000  0.50000000  1
  Sb  Sb1  1  0.00000000  0.00000000  0.00000000  1
  O  O2  1  0.54204028  0.04204028  0.50000000  1
  O  O3  1  0.20464077  0.20464077  0.00000000  1
  O  O4  1  0.95795972  0.45795972  0.50000000  1
  O  O5  1  0.79535923  0.79535923  1.00000000  1
