# generated using pymatgen
data_Li2VF6
_symmetry_space_group_name_H-M   'P 1'
_cell_length_a   4.96602988
_cell_length_b   4.96602986
_cell_length_c   4.50472224
_cell_angle_alpha   89.63978637
_cell_angle_beta   90.36021300
_cell_angle_gamma   59.48987778
_symmetry_Int_Tables_number   1
_chemical_formula_structural   Li2VF6
_chemical_formula_sum   'Li2 V1 F6'
_cell_volume   95.70331646
_cell_formula_units_Z   1
loop_
 _symmetry_equiv_pos_site_id
 _symmetry_equiv_pos_as_xyz
  1  'x, y, z'
loop_
 _atom_site_type_symbol
 _atom_site_label
 _atom_site_symmetry_multiplicity
 _atom_site_fract_x
 _atom_site_fract_y
 _atom_site_fract_z
 _atom_site_occupancy
  Li  Li0  1  0.33014458  0.33010125  0.50011616  1
  Li  Li1  1  0.66989875  0.66985542  0.50011616  1
  V  V2  1  0.00006792  0.99993208  0.00001672  1
  F  F3  1  0.00095208  0.68636802  0.24735804  1
  F  F4  1  0.30501558  0.69498442  0.76116143  1
  F  F5  1  0.68655124  0.00082529  0.75257311  1
  F  F6  1  0.31363198  0.99904792  0.24735804  1
  F  F7  1  0.69509915  0.30490085  0.23880322  1
  F  F8  1  0.99917471  0.31344876  0.75257311  1
