# generated using pymatgen
data_TlZnPO4
_symmetry_space_group_name_H-M   'P 1'
_cell_length_a   5.54496242
_cell_length_b   8.90029825
_cell_length_c   9.01053419
_cell_angle_alpha   90.66047403
_cell_angle_beta   90.00000000
_cell_angle_gamma   90.00000000
_symmetry_Int_Tables_number   1
_chemical_formula_structural   TlZnPO4
_chemical_formula_sum   'Tl4 Zn4 P4 O16'
_cell_volume   444.65671019
_cell_formula_units_Z   4
loop_
 _symmetry_equiv_pos_site_id
 _symmetry_equiv_pos_as_xyz
  1  'x, y, z'
loop_
 _atom_site_type_symbol
 _atom_site_label
 _atom_site_symmetry_multiplicity
 _atom_site_fract_x
 _atom_site_fract_y
 _atom_site_fract_z
 _atom_site_occupancy
  O  O0  1  0.92945225  0.68539672  0.23967259  1
  O  O1  1  0.42945225  0.31460328  0.76032741  1
  O  O2  1  0.27060422  0.22923004  0.43962408  1
  O  O3  1  0.77060422  0.77076996  0.56037592  1
  O  O4  1  0.27091862  0.21841871  0.00794969  1
  O  O5  1  0.77091862  0.78158129  0.99205031  1
  O  O6  1  0.91114432  0.31083193  0.28786744  1
  O  O7  1  0.41114432  0.68916807  0.71213256  1
  O  O8  1  0.34646937  0.79072644  0.45449545  1
  O  O9  1  0.84646937  0.20927356  0.54550455  1
  O  O10  1  0.71986766  0.22043410  0.96072756  1
  O  O11  1  0.21986766  0.77956590  0.03927244  1
  O  O12  1  0.47881488  0.96623384  0.66835177  1
  O  O13  1  0.97881488  0.03376616  0.33164823  1
  O  O14  1  0.99612491  0.53413576  0.00142072  1
  O  O15  1  0.49612491  0.46586424  0.99857928  1
  P  P16  1  0.47958699  0.30590602  0.92955479  1
  P  P17  1  0.97958699  0.69409398  0.07044521  1
  P  P18  1  0.50184814  0.80652386  0.59780001  1
  P  P19  1  0.00184814  0.19347614  0.40219999  1
  Zn  Zn20  1  0.47854195  0.67250066  0.92449001  1
  Zn  Zn21  1  0.97854195  0.32749934  0.07550999  1
  Zn  Zn22  1  0.50272332  0.17293108  0.59489681  1
  Zn  Zn23  1  0.00272332  0.82706892  0.40510319  1
  Tl  Tl24  1  0.51364626  0.50607697  0.31260905  1
  Tl  Tl25  1  0.01364626  0.49392303  0.68739095  1
  Tl  Tl26  1  0.48825712  0.00287268  0.18700397  1
  Tl  Tl27  1  0.98825712  0.99712732  0.81299603  1
