# generated using pymatgen
data_LiVF4
_symmetry_space_group_name_H-M   'P 1'
_cell_length_a   5.64252787
_cell_length_b   5.64252787
_cell_length_c   5.64252787
_cell_angle_alpha   107.55814086
_cell_angle_beta   107.55814086
_cell_angle_gamma   113.36911633
_symmetry_Int_Tables_number   1
_chemical_formula_structural   LiVF4
_chemical_formula_sum   'Li2 V2 F8'
_cell_volume   137.80920616
_cell_formula_units_Z   2
loop_
 _symmetry_equiv_pos_site_id
 _symmetry_equiv_pos_as_xyz
  1  'x, y, z'
loop_
 _atom_site_type_symbol
 _atom_site_label
 _atom_site_symmetry_multiplicity
 _atom_site_fract_x
 _atom_site_fract_y
 _atom_site_fract_z
 _atom_site_occupancy
  Li  Li0  1  0.48863969  0.48863969  0.00000000  1
  Li  Li1  1  0.23863969  0.73863969  0.50000000  1
  V  V2  1  0.01221969  0.01221969  0.00000000  1
  V  V3  1  0.76221969  0.26221969  0.50000000  1
  F  F4  1  0.71181048  0.01098447  0.70082601  1
  F  F5  1  0.31015745  0.01098447  0.29917399  1
  F  F6  1  0.78991697  0.48858634  0.30133063  1
  F  F7  1  0.23858634  0.43725572  0.19866937  1
  F  F8  1  0.76098447  0.96181048  0.20082601  1
  F  F9  1  0.76098447  0.56015745  0.79917399  1
  F  F10  1  0.23858634  0.03991697  0.80133063  1
  F  F11  1  0.18725572  0.48858634  0.69866937  1
