# generated using pymatgen
data_CaHClO
_symmetry_space_group_name_H-M   'P 1'
_cell_length_a   3.89810558
_cell_length_b   3.89809082
_cell_length_c   9.89350008
_cell_angle_alpha   90.00000000
_cell_angle_beta   90.00000000
_cell_angle_gamma   120.00012522
_symmetry_Int_Tables_number   1
_chemical_formula_structural   CaHClO
_chemical_formula_sum   'Ca2 H2 Cl2 O2'
_cell_volume   130.19238918
_cell_formula_units_Z   2
loop_
 _symmetry_equiv_pos_site_id
 _symmetry_equiv_pos_as_xyz
  1  'x, y, z'
loop_
 _atom_site_type_symbol
 _atom_site_label
 _atom_site_symmetry_multiplicity
 _atom_site_fract_x
 _atom_site_fract_y
 _atom_site_fract_z
 _atom_site_occupancy
  Ca  Ca0  1  0.66667419  0.33334839  0.50057875  1
  Ca  Ca1  1  0.33332581  0.66665161  0.00057875  1
  H  H2  1  0.00000252  0.00000504  0.66613143  1
  H  H3  1  0.99999748  0.99999496  0.16613143  1
  Cl  Cl4  1  0.66667987  0.33335975  0.81727736  1
  Cl  Cl5  1  0.33332013  0.66664025  0.31727736  1
  O  O6  1  -0.00000045  -0.00000090  0.56781246  1
  O  O7  1  0.00000045  0.00000090  0.06781246  1
