# generated using pymatgen
data_LiFeF4
_symmetry_space_group_name_H-M   'P 1'
_cell_length_a   7.76896920
_cell_length_b   7.76896940
_cell_length_c   7.91747776
_cell_angle_alpha   90.00000000
_cell_angle_beta   90.00000000
_cell_angle_gamma   119.99999911
_symmetry_Int_Tables_number   1
_chemical_formula_structural   LiFeF4
_chemical_formula_sum   'Li6 Fe6 F24'
_cell_volume   413.85127561
_cell_formula_units_Z   6
loop_
 _symmetry_equiv_pos_site_id
 _symmetry_equiv_pos_as_xyz
  1  'x, y, z'
loop_
 _atom_site_type_symbol
 _atom_site_label
 _atom_site_symmetry_multiplicity
 _atom_site_fract_x
 _atom_site_fract_y
 _atom_site_fract_z
 _atom_site_occupancy
  Li  Li0  1  0.95475268  0.80094878  0.05536908  1
  Li  Li1  1  0.99630826  0.34722692  0.99958701  1
  Li  Li2  1  0.35091866  0.00369174  0.66625401  1
  Li  Li3  1  0.19905122  0.15380391  0.38870208  1
  Li  Li4  1  0.65277308  0.64908134  0.33292101  1
  Li  Li5  1  0.84619609  0.04524732  0.72203508  1
  Fe  Fe6  1  0.12951145  0.66216153  0.38139006  1
  Fe  Fe7  1  0.33783847  0.46734992  0.71472406  1
  Fe  Fe8  1  0.53265008  0.87048855  0.04805706  1
  Fe  Fe9  1  0.40739763  0.24153575  0.06438015  1
  Fe  Fe10  1  0.83413812  0.59260237  0.73104715  1
  Fe  Fe11  1  0.75846425  0.16586188  0.39771315  1
  F  F12  1  0.27430857  0.70735945  0.15792566  1
  F  F13  1  0.37744352  0.01652554  0.92545914  1
  F  F14  1  0.10045391  0.73242992  0.63166537  1
  F  F15  1  0.98347446  0.36091798  0.25879214  1
  F  F16  1  0.26757008  0.36802500  0.96499837  1
  F  F17  1  0.31121168  0.23149476  0.61609042  1
  F  F18  1  0.43305089  0.72569143  0.82459266  1
  F  F19  1  0.29264055  0.56694911  0.49125866  1
  F  F20  1  0.63197500  0.89954609  0.29833137  1
  F  F21  1  0.14549834  0.05942458  0.14974204  1
  F  F22  1  0.44759742  0.38227106  0.27181045  1
  F  F23  1  0.29280520  0.94517430  0.40521857  1
  F  F24  1  0.63908202  0.62255648  0.59212614  1
  F  F25  1  0.57410719  0.40612119  0.85059607  1
  F  F26  1  0.65236909  0.70719480  0.07188457  1
  F  F27  1  0.91392624  0.85450166  0.81640804  1
  F  F28  1  0.92028308  0.68878832  0.28275742  1
  F  F29  1  0.83201299  0.42589281  0.51726307  1
  F  F30  1  0.61772894  0.06532635  0.60514345  1
  F  F31  1  0.93467365  0.55240258  0.93847645  1
  F  F32  1  0.59387881  0.16798701  0.18393007  1
  F  F33  1  0.05482570  0.34763091  0.73855157  1
  F  F34  1  0.94057542  0.08607376  0.48307504  1
  F  F35  1  0.76850524  0.07971692  0.94942342  1
