# generated using pymatgen
data_LiTiV2O6
_symmetry_space_group_name_H-M   'P 1'
_cell_length_a   3.02459575
_cell_length_b   6.50917268
_cell_length_c   6.02386860
_cell_angle_alpha   103.04346167
_cell_angle_beta   90.05926669
_cell_angle_gamma   103.50139958
_symmetry_Int_Tables_number   1
_chemical_formula_structural   LiTiV2O6
_chemical_formula_sum   'Li1 Ti1 V2 O6'
_cell_volume   112.16198903
_cell_formula_units_Z   1
loop_
 _symmetry_equiv_pos_site_id
 _symmetry_equiv_pos_as_xyz
  1  'x, y, z'
loop_
 _atom_site_type_symbol
 _atom_site_label
 _atom_site_symmetry_multiplicity
 _atom_site_fract_x
 _atom_site_fract_y
 _atom_site_fract_z
 _atom_site_occupancy
  Li  Li0  1  0.66550691  0.33463880  0.83252166  1
  Ti  Ti1  1  0.34714383  0.69563191  0.63455817  1
  V  V2  1  0.98674926  0.97778947  0.02546616  1
  V  V3  1  0.66570130  0.32556867  0.33716105  1
  O  O4  1  0.49374561  0.99027521  0.79511874  1
  O  O5  1  0.83033547  0.66265014  0.43564717  1
  O  O6  1  0.15212197  0.29312898  0.09437983  1
  O  O7  1  0.84079720  0.68370386  0.87579106  1
  O  O8  1  0.18445906  0.36830916  0.57364181  1
  O  O9  1  0.49950539  0.00043780  0.23369335  1
