# generated using pymatgen
data_NaH3SO5
_symmetry_space_group_name_H-M   'P 1'
_cell_length_a   5.61112863
_cell_length_b   5.61112863
_cell_length_c   8.29066245
_cell_angle_alpha   68.88071039
_cell_angle_beta   111.11928961
_cell_angle_gamma   89.81292361
_symmetry_Int_Tables_number   1
_chemical_formula_structural   NaH3SO5
_chemical_formula_sum   'Na2 H6 S2 O10'
_cell_volume   224.46928470
_cell_formula_units_Z   2
loop_
 _symmetry_equiv_pos_site_id
 _symmetry_equiv_pos_as_xyz
  1  'x, y, z'
loop_
 _atom_site_type_symbol
 _atom_site_label
 _atom_site_symmetry_multiplicity
 _atom_site_fract_x
 _atom_site_fract_y
 _atom_site_fract_z
 _atom_site_occupancy
  Na  Na0  1  0.93947120  0.48728575  0.49323622  1
  Na  Na1  1  0.51271425  0.06052880  0.99323622  1
  H  H2  1  0.29663199  0.59808427  0.77630423  1
  H  H3  1  0.40191573  0.70336801  0.27630423  1
  H  H4  1  0.47014801  0.53626387  0.68087413  1
  H  H5  1  0.46373613  0.52985199  0.18087413  1
  H  H6  1  0.82922370  0.59014938  0.00079535  1
  H  H7  1  0.40985062  0.17077630  0.50079535  1
  S  S8  1  0.86629689  0.86735697  0.74927119  1
  S  S9  1  0.13264303  0.13370311  0.24927119  1
  O  O10  1  0.78063443  0.68559745  0.65810362  1
  O  O11  1  0.31440255  0.21936557  0.15810362  1
  O  O12  1  0.72287869  0.13238358  0.63389497  1
  O  O13  1  0.86761642  0.27712131  0.13389497  1
  O  O14  1  0.78217064  0.78392456  0.92519924  1
  O  O15  1  0.21607544  0.21782936  0.42519924  1
  O  O16  1  0.14643911  0.86216821  0.82082321  1
  O  O17  1  0.13783179  0.85356089  0.32082321  1
  O  O18  1  0.34299780  0.46687841  0.73449784  1
  O  O19  1  0.53312159  0.65700220  0.23449784  1
