# generated using pymatgen
data_LiAlSiO4
_symmetry_space_group_name_H-M   'P 1'
_cell_length_a   8.44449054
_cell_length_b   8.44449054
_cell_length_c   8.44449054
_cell_angle_alpha   107.84316149
_cell_angle_beta   107.84316149
_cell_angle_gamma   107.84316150
_symmetry_Int_Tables_number   1
_chemical_formula_structural   LiAlSiO4
_chemical_formula_sum   'Li6 Al6 Si6 O24'
_cell_volume   489.50188370
_cell_formula_units_Z   6
loop_
 _symmetry_equiv_pos_site_id
 _symmetry_equiv_pos_as_xyz
  1  'x, y, z'
loop_
 _atom_site_type_symbol
 _atom_site_label
 _atom_site_symmetry_multiplicity
 _atom_site_fract_x
 _atom_site_fract_y
 _atom_site_fract_z
 _atom_site_occupancy
  Li  Li0  1  0.23307868  0.45527719  0.05916940  1
  Li  Li1  1  0.05916940  0.23307868  0.45527719  1
  Li  Li2  1  0.45527719  0.05916940  0.23307868  1
  Li  Li3  1  0.77235309  0.54281341  0.94221140  1
  Li  Li4  1  0.94221140  0.77235309  0.54281341  1
  Li  Li5  1  0.54281341  0.94221140  0.77235309  1
  O  O6  1  0.06539999  0.04336333  0.73190837  1
  O  O7  1  0.09228885  0.75349633  0.40337524  1
  O  O8  1  0.75349633  0.40337524  0.09228885  1
  O  O9  1  0.40337524  0.09228885  0.75349633  1
  O  O10  1  0.90509374  0.25934889  0.58843284  1
  O  O11  1  0.25934889  0.58843284  0.90509374  1
  O  O12  1  0.58843284  0.90509374  0.25934889  1
  O  O13  1  0.73190837  0.06539999  0.04336333  1
  O  O14  1  0.66208096  0.34977686  0.68328112  1
  O  O15  1  0.04336333  0.73190837  0.06539999  1
  O  O16  1  0.27916280  0.95145500  0.95881100  1
  O  O17  1  0.95145500  0.95881100  0.27916280  1
  O  O18  1  0.35795314  0.65278361  0.31950702  1
  O  O19  1  0.31950702  0.35795314  0.65278361  1
  O  O20  1  0.65278361  0.31950702  0.35795314  1
  O  O21  1  0.67551105  0.93953456  0.60660953  1
  O  O22  1  0.68328112  0.66208096  0.34977686  1
  O  O23  1  0.34977686  0.68328112  0.66208096  1
  O  O24  1  0.04488860  0.37825308  0.30904572  1
  O  O25  1  0.60660953  0.67551105  0.93953456  1
  O  O26  1  0.93953456  0.60660953  0.67551105  1
  O  O27  1  0.30904572  0.04488860  0.37825308  1
  O  O28  1  0.37825308  0.30904572  0.04488860  1
  O  O29  1  0.95881100  0.27916280  0.95145500  1
  Al  Al30  1  0.61526153  0.42743026  0.21013872  1
  Al  Al31  1  0.72112251  0.89931854  0.13210665  1
  Al  Al32  1  0.42743026  0.21013872  0.61526153  1
  Al  Al33  1  0.21013872  0.61526153  0.42743026  1
  Al  Al34  1  0.13210665  0.72112251  0.89931854  1
  Al  Al35  1  0.89931854  0.13210665  0.72112251  1
  Si  Si36  1  0.79085271  0.38498417  0.57382619  1
  Si  Si37  1  0.57382619  0.79085271  0.38498417  1
  Si  Si38  1  0.38498417  0.57382619  0.79085271  1
  Si  Si39  1  0.27991078  0.10017476  0.87074837  1
  Si  Si40  1  0.10017476  0.87074837  0.27991078  1
  Si  Si41  1  0.87074837  0.27991078  0.10017476  1
