# generated using pymatgen
data_Li5BiO5
_symmetry_space_group_name_H-M   'P 1'
_cell_length_a   4.27386476
_cell_length_b   5.43769688
_cell_length_c   6.05401960
_cell_angle_alpha   108.08675613
_cell_angle_beta   90.00000000
_cell_angle_gamma   113.14035216
_symmetry_Int_Tables_number   1
_chemical_formula_structural   Li5BiO5
_chemical_formula_sum   'Li5 Bi1 O5'
_cell_volume   121.77904142
_cell_formula_units_Z   1
loop_
 _symmetry_equiv_pos_site_id
 _symmetry_equiv_pos_as_xyz
  1  'x, y, z'
loop_
 _atom_site_type_symbol
 _atom_site_label
 _atom_site_symmetry_multiplicity
 _atom_site_fract_x
 _atom_site_fract_y
 _atom_site_fract_z
 _atom_site_occupancy
  Li  Li0  1  0.70175429  0.40350859  0.35209282  1
  Li  Li1  1  0.98928025  0.97856050  0.51746612  1
  Li  Li2  1  0.30714054  0.61428108  0.15421891  1
  Li  Li3  1  0.68277006  0.36554012  0.87664145  1
  Li  Li4  1  0.28114738  0.56229477  0.67135823  1
  O  O5  1  0.84559462  0.69118925  0.19480133  1
  O  O6  1  0.49680617  0.99361234  0.02386778  1
  O  O7  1  0.16169578  0.32339157  0.34038835  1
  O  O8  1  0.82901870  0.65803739  0.68870071  1
  O  O9  1  0.14213437  0.28426874  0.83417858  1
  Bi  Bi10  1  0.99465783  0.98931566  0.01628573  1
