# generated using pymatgen
data_LiCoPO4
_symmetry_space_group_name_H-M   'P 1'
_cell_length_a   5.07238311
_cell_length_b   8.28841466
_cell_length_c   5.07238271
_cell_angle_alpha   107.81787643
_cell_angle_beta   60.00000210
_cell_angle_gamma   107.81787809
_symmetry_Int_Tables_number   1
_chemical_formula_structural   LiCoPO4
_chemical_formula_sum   'Li2 Co2 P2 O8'
_cell_volume   172.77044854
_cell_formula_units_Z   2
loop_
 _symmetry_equiv_pos_site_id
 _symmetry_equiv_pos_as_xyz
  1  'x, y, z'
loop_
 _atom_site_type_symbol
 _atom_site_label
 _atom_site_symmetry_multiplicity
 _atom_site_fract_x
 _atom_site_fract_y
 _atom_site_fract_z
 _atom_site_occupancy
  Li  Li0  1  0.15054814  0.45164342  0.15054814  1
  Li  Li1  1  0.42480074  0.27440322  0.42480074  1
  Co  Co2  1  0.01744546  0.05233638  0.01744546  1
  Co  Co3  1  0.55804435  0.67413305  0.55804435  1
  P  P4  1  0.87000714  0.61002242  0.87000714  1
  P  P5  1  0.70550582  0.11651847  0.70550582  1
  O  O6  1  0.14837479  0.54337271  0.56750000  1
  O  O7  1  0.00792912  0.18326495  0.74823737  1
  O  O8  1  0.42709846  0.18326495  0.00792912  1
  O  O9  1  0.63990516  0.91971548  0.63990516  1
  O  O10  1  0.82749692  0.54337271  0.14837479  1
  O  O11  1  0.56750000  0.54337271  0.82749692  1
  O  O12  1  0.74823737  0.18326495  0.42709846  1
  O  O13  1  0.93563553  0.80690558  0.93563553  1
