# generated using pymatgen
data_Li5NiOF5
_symmetry_space_group_name_H-M   'P 1'
_cell_length_a   3.17807417
_cell_length_b   3.17774674
_cell_length_c   15.21530340
_cell_angle_alpha   89.99999817
_cell_angle_beta   89.96093889
_cell_angle_gamma   119.99658237
_symmetry_Int_Tables_number   1
_chemical_formula_structural   Li5NiOF5
_chemical_formula_sum   'Li5 Ni1 O1 F5'
_cell_volume   133.07895419
_cell_formula_units_Z   1
loop_
 _symmetry_equiv_pos_site_id
 _symmetry_equiv_pos_as_xyz
  1  'x, y, z'
loop_
 _atom_site_type_symbol
 _atom_site_label
 _atom_site_symmetry_multiplicity
 _atom_site_fract_x
 _atom_site_fract_y
 _atom_site_fract_z
 _atom_site_occupancy
  Li  Li0  1  0.33335587  0.66672794  0.33493714  1
  Li  Li1  1  0.33340125  0.66675063  0.66489459  1
  Li  Li2  1  0.66664782  0.33337341  0.50005715  1
  Li  Li3  1  0.66740035  0.33375017  0.17294278  1
  Li  Li4  1  0.66665794  0.33337897  0.82829858  1
  Ni  Ni5  1  0.33231119  0.66620559  0.99206343  1
  O  O6  1  0.66530104  0.33270002  0.95805544  1
  F  F7  1  0.33343109  0.66676554  0.46079532  1
  F  F8  1  0.33345708  0.66677904  0.78983648  1
  F  F9  1  0.33413453  0.66711777  0.13834807  1
  F  F10  1  0.66697640  0.33353820  0.29671233  1
  F  F11  1  0.66692545  0.33351272  0.62609171  1
