# generated using pymatgen
data_NbVO4
_symmetry_space_group_name_H-M   'P 1'
_cell_length_a   3.15478273
_cell_length_b   5.69420548
_cell_length_c   5.69386892
_cell_angle_alpha   73.47106377
_cell_angle_beta   123.84184563
_cell_angle_gamma   123.83832427
_symmetry_Int_Tables_number   1
_chemical_formula_structural   NbVO4
_chemical_formula_sum   'Nb1 V1 O4'
_cell_volume   70.51625813
_cell_formula_units_Z   1
loop_
 _symmetry_equiv_pos_site_id
 _symmetry_equiv_pos_as_xyz
  1  'x, y, z'
loop_
 _atom_site_type_symbol
 _atom_site_label
 _atom_site_symmetry_multiplicity
 _atom_site_fract_x
 _atom_site_fract_y
 _atom_site_fract_z
 _atom_site_occupancy
  Nb  Nb0  1  0.93669416  0.49722823  0.49722292  1
  V  V1  1  0.50623183  0.99728610  0.99728595  1
  O  O2  1  0.41900018  0.19834578  0.19827920  1
  O  O3  1  0.50709299  0.29873887  0.69598615  1
  O  O4  1  0.50717153  0.69602186  0.29878012  1
  O  O5  1  0.61909731  0.79646216  0.79653666  1
