# generated using pymatgen
data_Ni(HO)2
_symmetry_space_group_name_H-M   'P 1'
_cell_length_a   7.63428234
_cell_length_b   8.09560999
_cell_length_c   8.09561011
_cell_angle_alpha   22.44681882
_cell_angle_beta   22.95147591
_cell_angle_gamma   22.95147617
_symmetry_Int_Tables_number   1
_chemical_formula_structural   Ni(HO)2
_chemical_formula_sum   'Ni1 H2 O2'
_cell_volume   65.81308138
_cell_formula_units_Z   1
loop_
 _symmetry_equiv_pos_site_id
 _symmetry_equiv_pos_as_xyz
  1  'x, y, z'
loop_
 _atom_site_type_symbol
 _atom_site_label
 _atom_site_symmetry_multiplicity
 _atom_site_fract_x
 _atom_site_fract_y
 _atom_site_fract_z
 _atom_site_occupancy
  Ni  Ni0  1  0.00000000  0.89767886  0.10232114  1
  H  H1  1  0.46091530  0.51283680  0.76614207  1
  H  H2  1  0.53908470  0.23385794  0.48716320  1
  O  O3  1  0.55558429  0.55147229  0.75936788  1
  O  O4  1  0.44441571  0.24063212  0.44852771  1
