# generated using pymatgen
data_Cs2HgF4
_symmetry_space_group_name_H-M   'P 1'
_cell_length_a   4.75323227
_cell_length_b   4.75323227
_cell_length_c   8.06390251
_cell_angle_alpha   107.14091754
_cell_angle_beta   107.14091758
_cell_angle_gamma   89.99999995
_symmetry_Int_Tables_number   1
_chemical_formula_structural   Cs2HgF4
_chemical_formula_sum   'Cs2 Hg1 F4'
_cell_volume   165.60984524
_cell_formula_units_Z   1
loop_
 _symmetry_equiv_pos_site_id
 _symmetry_equiv_pos_as_xyz
  1  'x, y, z'
loop_
 _atom_site_type_symbol
 _atom_site_label
 _atom_site_symmetry_multiplicity
 _atom_site_fract_x
 _atom_site_fract_y
 _atom_site_fract_z
 _atom_site_occupancy
  F  F0  1  0.15512779  0.15512779  0.31025557  1
  F  F1  1  0.84487221  0.84487221  0.68974443  1
  F  F2  1  0.50000000  0.00000000  0.00000000  1
  F  F3  1  0.00000000  0.50000000  0.00000000  1
  Cs  Cs4  1  0.35707637  0.35707637  0.71415274  1
  Cs  Cs5  1  0.64292363  0.64292363  0.28584726  1
  Hg  Hg6  1  0.00000000  0.00000000  0.00000000  1
