# generated using pymatgen
data_Zn2SiH2O5
_symmetry_space_group_name_H-M   'P 1'
_cell_length_a   5.16808571
_cell_length_b   7.37794946
_cell_length_c   7.37794946
_cell_angle_alpha   70.59277137
_cell_angle_beta   69.49808599
_cell_angle_gamma   69.49808599
_symmetry_Int_Tables_number   1
_chemical_formula_structural   Zn2SiH2O5
_chemical_formula_sum   'Zn4 Si2 H4 O10'
_cell_volume   239.66365023
_cell_formula_units_Z   2
loop_
 _symmetry_equiv_pos_site_id
 _symmetry_equiv_pos_as_xyz
  1  'x, y, z'
loop_
 _atom_site_type_symbol
 _atom_site_label
 _atom_site_symmetry_multiplicity
 _atom_site_fract_x
 _atom_site_fract_y
 _atom_site_fract_z
 _atom_site_occupancy
  Zn  Zn0  1  0.15976127  0.63395570  0.04085211  1
  Zn  Zn1  1  0.83456907  0.36604430  0.95914789  1
  Zn  Zn2  1  0.15976127  0.04085211  0.63395570  1
  Zn  Zn3  1  0.83456907  0.95914789  0.36604430  1
  Si  Si4  1  0.63722296  0.85393848  0.85393848  1
  Si  Si5  1  0.34509992  0.14606152  0.14606152  1
  H  H6  1  0.84021218  0.61639469  0.38360531  1
  H  H7  1  0.84021218  0.38360531  0.61639469  1
  H  H8  1  0.36222799  0.58915616  0.41084384  1
  H  H9  1  0.36222799  0.41084384  0.58915616  1
  O  O10  1  0.56855145  0.63538860  0.95426232  1
  O  O11  1  0.15820237  0.36461140  0.04573768  1
  O  O12  1  0.56855145  0.95426232  0.63538860  1
  O  O13  1  0.15820237  0.04573768  0.36461140  1
  O  O14  1  0.97132771  0.83364554  0.83364554  1
  O  O15  1  0.63861880  0.16635446  0.16635446  1
  O  O16  1  0.97821798  0.69478561  0.30521439  1
  O  O17  1  0.97821798  0.30521439  0.69478561  1
  O  O18  1  0.40941460  0.00000000  0.00000000  1
  O  O19  1  0.48233138  0.50000000  0.50000000  1
