# generated using pymatgen
data_SrSiN2
_symmetry_space_group_name_H-M   'P 1'
_cell_length_a   5.54669670
_cell_length_b   5.98884197
_cell_length_c   7.37806532
_cell_angle_alpha   90.00000000
_cell_angle_beta   90.00000000
_cell_angle_gamma   112.68782549
_symmetry_Int_Tables_number   1
_chemical_formula_structural   SrSiN2
_chemical_formula_sum   'Sr4 Si4 N8'
_cell_volume   226.12192019
_cell_formula_units_Z   4
loop_
 _symmetry_equiv_pos_site_id
 _symmetry_equiv_pos_as_xyz
  1  'x, y, z'
loop_
 _atom_site_type_symbol
 _atom_site_label
 _atom_site_symmetry_multiplicity
 _atom_site_fract_x
 _atom_site_fract_y
 _atom_site_fract_z
 _atom_site_occupancy
  N  N0  1  0.89043129  0.20946394  0.28311270  1
  N  N1  1  0.60956871  0.79053606  0.78311270  1
  N  N2  1  0.10956871  0.79053606  0.71688730  1
  N  N3  1  0.39043129  0.20946394  0.21688730  1
  N  N4  1  0.07927417  0.20969279  0.91344944  1
  N  N5  1  0.57927417  0.20969279  0.58655056  1
  N  N6  1  0.92072583  0.79030721  0.08655056  1
  N  N7  1  0.42072583  0.79030721  0.41344944  1
  Si  Si8  1  0.07073436  0.10479477  0.14129833  1
  Si  Si9  1  0.92926564  0.89520523  0.85870167  1
  Si  Si10  1  0.42926564  0.89520523  0.64129833  1
  Si  Si11  1  0.57073436  0.10479477  0.35870167  1
  Sr  Sr12  1  0.67578085  0.33704303  0.92509710  1
  Sr  Sr13  1  0.82421915  0.66295697  0.42509710  1
  Sr  Sr14  1  0.32421915  0.66295697  0.07490290  1
  Sr  Sr15  1  0.17578085  0.33704303  0.57490290  1
