# generated using pymatgen
data_BH2OF3
_symmetry_space_group_name_H-M   'P 1'
_cell_length_a   7.31359403
_cell_length_b   7.91573634
_cell_length_c   5.48839491
_cell_angle_alpha   90.00000000
_cell_angle_beta   91.53692655
_cell_angle_gamma   90.00000000
_symmetry_Int_Tables_number   1
_chemical_formula_structural   BH2OF3
_chemical_formula_sum   'B4 H8 O4 F12'
_cell_volume   317.62249653
_cell_formula_units_Z   4
loop_
 _symmetry_equiv_pos_site_id
 _symmetry_equiv_pos_as_xyz
  1  'x, y, z'
loop_
 _atom_site_type_symbol
 _atom_site_label
 _atom_site_symmetry_multiplicity
 _atom_site_fract_x
 _atom_site_fract_y
 _atom_site_fract_z
 _atom_site_occupancy
  B  B0  1  0.13038718  0.80763811  0.02288647  1
  B  B1  1  0.63038718  0.69236189  0.52288647  1
  B  B2  1  0.86961282  0.19236189  0.97711353  1
  B  B3  1  0.36961282  0.30763811  0.47711353  1
  H  H4  1  0.26493162  0.56321145  0.07381275  1
  H  H5  1  0.76493162  0.93678855  0.57381275  1
  H  H6  1  0.73506838  0.43678855  0.92618725  1
  H  H7  1  0.23506838  0.06321145  0.42618725  1
  H  H8  1  0.33340318  0.66461554  0.83028268  1
  H  H9  1  0.83340318  0.83538446  0.33028268  1
  H  H10  1  0.66659682  0.33538446  0.16971732  1
  H  H11  1  0.16659682  0.16461554  0.66971732  1
  O  O12  1  0.23107337  0.64485867  0.94522766  1
  O  O13  1  0.73107337  0.85514133  0.44522766  1
  O  O14  1  0.76892663  0.35514133  0.05477234  1
  O  O15  1  0.26892663  0.14485867  0.55477234  1
  F  F16  1  0.07887268  0.88666076  0.80713143  1
  F  F17  1  0.57887268  0.61333924  0.30713143  1
  F  F18  1  0.92112732  0.11333924  0.19286857  1
  F  F19  1  0.42112732  0.38666076  0.69286857  1
  F  F20  1  0.24774775  0.90713885  0.16860762  1
  F  F21  1  0.74774775  0.59286115  0.66860762  1
  F  F22  1  0.75225225  0.09286115  0.83139238  1
  F  F23  1  0.25225225  0.40713885  0.33139238  1
  F  F24  1  0.98037428  0.74916764  0.15532339  1
  F  F25  1  0.48037428  0.75083236  0.65532339  1
  F  F26  1  0.01962572  0.25083236  0.84467661  1
  F  F27  1  0.51962572  0.24916764  0.34467661  1
