# generated using pymatgen
data_Hg
_symmetry_space_group_name_H-M   'P 1'
_cell_length_a   10.52227860
_cell_length_b   10.52227860
_cell_length_c   10.52227860
_cell_angle_alpha   109.47122063
_cell_angle_beta   109.47122063
_cell_angle_gamma   109.47122063
_symmetry_Int_Tables_number   1
_chemical_formula_structural   Hg
_chemical_formula_sum   Hg29
_cell_volume   896.82457061
_cell_formula_units_Z   29
loop_
 _symmetry_equiv_pos_site_id
 _symmetry_equiv_pos_as_xyz
  1  'x, y, z'
loop_
 _atom_site_type_symbol
 _atom_site_label
 _atom_site_symmetry_multiplicity
 _atom_site_fract_x
 _atom_site_fract_y
 _atom_site_fract_z
 _atom_site_occupancy
  Hg  Hg0  1  0.00000000  0.00000000  0.00000000  1
  Hg  Hg1  1  0.34572094  0.00000000  0.00000000  1
  Hg  Hg2  1  0.58776773  0.30874508  0.00000000  1
  Hg  Hg3  1  0.00000000  0.34572094  0.00000000  1
  Hg  Hg4  1  0.30874508  0.58776773  0.00000000  1
  Hg  Hg5  1  0.80705600  0.62125142  0.00000000  1
  Hg  Hg6  1  0.62125142  0.80705600  0.00000000  1
  Hg  Hg7  1  0.37874858  0.37874858  0.18580458  1
  Hg  Hg8  1  0.81419642  0.19294400  0.19294400  1
  Hg  Hg9  1  0.19294400  0.81419642  0.19294400  1
  Hg  Hg10  1  0.69125392  0.69125392  0.27902265  1
  Hg  Hg11  1  0.58776773  0.00000000  0.30874508  1
  Hg  Hg12  1  0.00000000  0.58776773  0.30874508  1
  Hg  Hg13  1  0.00000000  0.00000000  0.34572094  1
  Hg  Hg14  1  0.37874858  0.18580458  0.37874858  1
  Hg  Hg15  1  0.18580458  0.37874858  0.37874858  1
  Hg  Hg16  1  0.72097735  0.41223127  0.41223127  1
  Hg  Hg17  1  0.41223127  0.72097735  0.41223127  1
  Hg  Hg18  1  0.30874508  0.00000000  0.58776773  1
  Hg  Hg19  1  0.00000000  0.30874508  0.58776773  1
  Hg  Hg20  1  0.80705600  0.00000000  0.62125142  1
  Hg  Hg21  1  0.00000000  0.80705600  0.62125142  1
  Hg  Hg22  1  0.65427906  0.65427906  0.65427906  1
  Hg  Hg23  1  0.69125392  0.27902265  0.69125392  1
  Hg  Hg24  1  0.27902265  0.69125392  0.69125392  1
  Hg  Hg25  1  0.41223127  0.41223127  0.72097735  1
  Hg  Hg26  1  0.62125142  0.00000000  0.80705600  1
  Hg  Hg27  1  0.00000000  0.62125142  0.80705600  1
  Hg  Hg28  1  0.19294400  0.19294400  0.81419642  1
