# generated using pymatgen
data_CsAgO
_symmetry_space_group_name_H-M   'P 1'
_cell_length_a   6.30203020
_cell_length_b   8.03589289
_cell_length_c   8.03589289
_cell_angle_alpha   81.15533185
_cell_angle_beta   66.91367248
_cell_angle_gamma   66.91367250
_symmetry_Int_Tables_number   1
_chemical_formula_structural   CsAgO
_chemical_formula_sum   'Cs4 Ag4 O4'
_cell_volume   344.38501769
_cell_formula_units_Z   4
loop_
 _symmetry_equiv_pos_site_id
 _symmetry_equiv_pos_as_xyz
  1  'x, y, z'
loop_
 _atom_site_type_symbol
 _atom_site_label
 _atom_site_symmetry_multiplicity
 _atom_site_fract_x
 _atom_site_fract_y
 _atom_site_fract_z
 _atom_site_occupancy
  O  O0  1  0.46732120  0.78234742  0.78234742  1
  O  O1  1  0.75033138  0.21765258  0.78234742  1
  O  O2  1  0.75033138  0.78234742  0.21765258  1
  O  O3  1  0.03201603  0.21765258  0.21765258  1
  Ag  Ag4  1  0.89098087  0.21803825  0.50000000  1
  Ag  Ag5  1  0.60901913  0.78196175  0.50000000  1
  Ag  Ag6  1  0.60901913  0.50000000  0.78196175  1
  Ag  Ag7  1  0.89098087  0.50000000  0.21803825  1
  Cs  Cs8  1  0.55811090  0.19202373  0.19202373  1
  Cs  Cs9  1  0.24986537  0.80797627  0.19202373  1
  Cs  Cs10  1  0.94215836  0.80797627  0.80797627  1
  Cs  Cs11  1  0.24986537  0.19202373  0.80797627  1
