# generated using pymatgen
data_Re3(TeBr)7
_symmetry_space_group_name_H-M   'P 1'
_cell_length_a   13.32806886
_cell_length_b   13.32806871
_cell_length_c   13.32806875
_cell_angle_alpha   46.94157203
_cell_angle_beta   46.94157262
_cell_angle_gamma   46.94156984
_symmetry_Int_Tables_number   1
_chemical_formula_structural   Re3(TeBr)7
_chemical_formula_sum   'Re6 Te14 Br14'
_cell_volume   1155.23971307
_cell_formula_units_Z   2
loop_
 _symmetry_equiv_pos_site_id
 _symmetry_equiv_pos_as_xyz
  1  'x, y, z'
loop_
 _atom_site_type_symbol
 _atom_site_label
 _atom_site_symmetry_multiplicity
 _atom_site_fract_x
 _atom_site_fract_y
 _atom_site_fract_z
 _atom_site_occupancy
  Re  Re0  1  0.83448401  0.94348180  0.12730515  1
  Re  Re1  1  0.05651820  0.87269485  0.16551599  1
  Re  Re2  1  0.16551599  0.05651820  0.87269485  1
  Re  Re3  1  0.94348180  0.12730515  0.83448401  1
  Re  Re4  1  0.87269485  0.16551599  0.05651820  1
  Re  Re5  1  0.12730515  0.83448401  0.94348180  1
  Te  Te6  1  0.23722026  0.01803544  0.65162779  1
  Te  Te7  1  0.59985354  0.86700598  0.31140834  1
  Te  Te8  1  0.98196456  0.34837221  0.76277974  1
  Te  Te9  1  0.31140834  0.59985354  0.86700598  1
  Te  Te10  1  0.65162779  0.23722026  0.01803544  1
  Te  Te11  1  0.40014646  0.13299402  0.68859166  1
  Te  Te12  1  0.68859166  0.40014646  0.13299402  1
  Te  Te13  1  0.09361137  0.09361137  0.09361137  1
  Te  Te14  1  0.13299402  0.68859166  0.40014646  1
  Te  Te15  1  0.76277974  0.98196456  0.34837221  1
  Te  Te16  1  0.86700598  0.31140834  0.59985354  1
  Te  Te17  1  0.34837221  0.76277974  0.98196456  1
  Te  Te18  1  0.90638863  0.90638863  0.90638863  1
  Te  Te19  1  0.01803544  0.65162779  0.23722026  1
  Br  Br20  1  0.70693443  0.30174129  0.36773397  1
  Br  Br21  1  0.29306557  0.69825871  0.63226603  1
  Br  Br22  1  0.03589778  0.15057461  0.45048691  1
  Br  Br23  1  0.36301232  0.36301232  0.36301232  1
  Br  Br24  1  0.45048691  0.03589778  0.15057461  1
  Br  Br25  1  0.54951309  0.96410222  0.84942539  1
  Br  Br26  1  0.63698768  0.63698768  0.63698768  1
  Br  Br27  1  0.15057461  0.45048691  0.03589778  1
  Br  Br28  1  0.84942539  0.54951309  0.96410222  1
  Br  Br29  1  0.36773397  0.70693443  0.30174129  1
  Br  Br30  1  0.63226603  0.29306557  0.69825871  1
  Br  Br31  1  0.69825871  0.63226603  0.29306557  1
  Br  Br32  1  0.30174129  0.36773397  0.70693443  1
  Br  Br33  1  0.96410222  0.84942539  0.54951309  1
