# generated using pymatgen
data_RbNO2
_symmetry_space_group_name_H-M   'P 1'
_cell_length_a   5.78213881
_cell_length_b   5.78213947
_cell_length_c   7.65195401
_cell_angle_alpha   90.00000000
_cell_angle_beta   90.00000000
_cell_angle_gamma   119.99999618
_symmetry_Int_Tables_number   1
_chemical_formula_structural   RbNO2
_chemical_formula_sum   'Rb3 N3 O6'
_cell_volume   221.55424513
_cell_formula_units_Z   3
loop_
 _symmetry_equiv_pos_site_id
 _symmetry_equiv_pos_as_xyz
  1  'x, y, z'
loop_
 _atom_site_type_symbol
 _atom_site_label
 _atom_site_symmetry_multiplicity
 _atom_site_fract_x
 _atom_site_fract_y
 _atom_site_fract_z
 _atom_site_occupancy
  Rb  Rb0  1  1.00000000  0.70136849  0.66666700  1
  Rb  Rb1  1  0.29863151  0.29863151  0.00000000  1
  Rb  Rb2  1  0.70136849  0.00000000  0.33333300  1
  N  N3  1  0.00000000  0.68509995  0.16666700  1
  N  N4  1  0.31490005  0.31490005  0.50000000  1
  N  N5  1  0.68509995  0.00000000  0.83333300  1
  O  O6  1  0.11948709  0.62649536  0.28300158  1
  O  O7  1  0.50700827  0.88051291  0.94966858  1
  O  O8  1  0.37350464  0.49299173  0.61633458  1
  O  O9  1  0.49299173  0.37350464  0.38366542  1
  O  O10  1  0.62649536  0.11948709  0.71699842  1
  O  O11  1  0.88051291  0.50700827  0.05033142  1
