# generated using pymatgen
data_CuAsSe2
_symmetry_space_group_name_H-M   'P 1'
_cell_length_a   6.38230670
_cell_length_b   6.38230670
_cell_length_c   6.38230670
_cell_angle_alpha   40.24354171
_cell_angle_beta   40.24354168
_cell_angle_gamma   40.24354175
_symmetry_Int_Tables_number   1
_chemical_formula_structural   CuAsSe2
_chemical_formula_sum   'Cu1 As1 Se2'
_cell_volume   97.81167800
_cell_formula_units_Z   1
loop_
 _symmetry_equiv_pos_site_id
 _symmetry_equiv_pos_as_xyz
  1  'x, y, z'
loop_
 _atom_site_type_symbol
 _atom_site_label
 _atom_site_symmetry_multiplicity
 _atom_site_fract_x
 _atom_site_fract_y
 _atom_site_fract_z
 _atom_site_occupancy
  Cu  Cu0  1  0.49237707  0.49237707  0.49237707  1
  As  As1  1  0.99506318  0.99506318  0.99506318  1
  Se  Se2  1  0.13188283  0.13188283  0.13188283  1
  Se  Se3  1  0.63167693  0.63167693  0.63167693  1
