# generated using pymatgen
data_SeBr
_symmetry_space_group_name_H-M   'P 1'
_cell_length_a   4.46974608
_cell_length_b   4.46974516
_cell_length_c   15.11222478
_cell_angle_alpha   90.00000000
_cell_angle_beta   90.00000000
_cell_angle_gamma   106.17083698
_symmetry_Int_Tables_number   1
_chemical_formula_structural   SeBr
_chemical_formula_sum   'Se4 Br4'
_cell_volume   289.97613287
_cell_formula_units_Z   4
loop_
 _symmetry_equiv_pos_site_id
 _symmetry_equiv_pos_as_xyz
  1  'x, y, z'
loop_
 _atom_site_type_symbol
 _atom_site_label
 _atom_site_symmetry_multiplicity
 _atom_site_fract_x
 _atom_site_fract_y
 _atom_site_fract_z
 _atom_site_occupancy
  Se  Se0  1  0.68525850  0.92638069  0.54873045  1
  Se  Se1  1  0.42638069  0.18525850  0.04873045  1
  Se  Se2  1  0.18525850  0.42638069  0.95126955  1
  Se  Se3  1  0.92638069  0.68525850  0.45126955  1
  Br  Br4  1  0.94732742  0.06623339  0.83516212  1
  Br  Br5  1  0.44732742  0.56623339  0.66483788  1
  Br  Br6  1  0.06623339  0.94732742  0.16483788  1
  Br  Br7  1  0.56623339  0.44732742  0.33516212  1
