# generated using pymatgen
data_BaLaMgRuO6
_symmetry_space_group_name_H-M   'P 1'
_cell_length_a   5.66477047
_cell_length_b   5.66473228
_cell_length_c   5.71435344
_cell_angle_alpha   119.71494891
_cell_angle_beta   119.72037033
_cell_angle_gamma   89.99947220
_symmetry_Int_Tables_number   1
_chemical_formula_structural   BaLaMgRuO6
_chemical_formula_sum   'Ba1 La1 Mg1 Ru1 O6'
_cell_volume   130.76177182
_cell_formula_units_Z   1
loop_
 _symmetry_equiv_pos_site_id
 _symmetry_equiv_pos_as_xyz
  1  'x, y, z'
loop_
 _atom_site_type_symbol
 _atom_site_label
 _atom_site_symmetry_multiplicity
 _atom_site_fract_x
 _atom_site_fract_y
 _atom_site_fract_z
 _atom_site_occupancy
  Ba  Ba0  1  0.74999326  0.24996707  0.49999973  1
  La  La1  1  0.25006496  0.74986057  0.49998255  1
  Mg  Mg2  1  0.99982770  0.00026052  0.99997664  1
  O  O3  1  0.25663307  0.25669174  0.51323868  1
  O  O4  1  0.22771986  0.32046775  0.03476935  1
  O  O5  1  0.28574758  0.77225277  0.96523502  1
  O  O6  1  0.74336262  0.74334697  0.48676757  1
  O  O7  1  0.67956209  0.19291903  0.96525300  1
  O  O8  1  0.80706909  0.71427005  0.03476819  1
  Ru  Ru9  1  0.50001976  0.49996352  0.00000927  1
