# generated using pymatgen
data_NbZn2N3
_symmetry_space_group_name_H-M   'P 1'
_cell_length_a   5.74244937
_cell_length_b   5.81095643
_cell_length_c   5.44150178
_cell_angle_alpha   90.00000000
_cell_angle_beta   90.00000000
_cell_angle_gamma   120.39542900
_symmetry_Int_Tables_number   1
_chemical_formula_structural   NbZn2N3
_chemical_formula_sum   'Nb2 Zn4 N6'
_cell_volume   156.62095999
_cell_formula_units_Z   2
loop_
 _symmetry_equiv_pos_site_id
 _symmetry_equiv_pos_as_xyz
  1  'x, y, z'
loop_
 _atom_site_type_symbol
 _atom_site_label
 _atom_site_symmetry_multiplicity
 _atom_site_fract_x
 _atom_site_fract_y
 _atom_site_fract_z
 _atom_site_occupancy
  Nb  Nb0  1  0.00000000  0.66989380  0.48687982  1
  Nb  Nb1  1  0.00000000  0.33010620  0.98687982  1
  Zn  Zn2  1  0.34251264  0.33358379  0.49699153  1
  Zn  Zn3  1  0.65748736  0.99107115  0.49699153  1
  Zn  Zn4  1  0.65748736  0.66641621  0.99699153  1
  Zn  Zn5  1  0.34251264  0.00892885  0.99699153  1
  N  N6  1  0.31968309  0.32950946  0.87509106  1
  N  N7  1  0.68031691  0.00982637  0.87509106  1
  N  N8  1  0.68031691  0.67049054  0.37509106  1
  N  N9  1  0.31968309  0.99017363  0.37509106  1
  N  N10  1  0.00000000  0.65631694  0.85695601  1
  N  N11  1  1.00000000  0.34368306  0.35695601  1
