# generated using pymatgen
data_CaWN3
_symmetry_space_group_name_H-M   'P 1'
_cell_length_a   14.55567070
_cell_length_b   3.64599611
_cell_length_c   5.83002378
_cell_angle_alpha   90.00000000
_cell_angle_beta   106.17675114
_cell_angle_gamma   90.00000000
_symmetry_Int_Tables_number   1
_chemical_formula_structural   CaWN3
_chemical_formula_sum   'Ca4 W4 N12'
_cell_volume   297.14880021
_cell_formula_units_Z   4
loop_
 _symmetry_equiv_pos_site_id
 _symmetry_equiv_pos_as_xyz
  1  'x, y, z'
loop_
 _atom_site_type_symbol
 _atom_site_label
 _atom_site_symmetry_multiplicity
 _atom_site_fract_x
 _atom_site_fract_y
 _atom_site_fract_z
 _atom_site_occupancy
  Ca  Ca0  1  0.09165741  0.50000000  0.29439154  1
  Ca  Ca1  1  0.40834259  0.00000000  0.70560846  1
  Ca  Ca2  1  0.59165741  0.00000000  0.29439154  1
  Ca  Ca3  1  0.90834259  0.50000000  0.70560846  1
  W  W4  1  0.15674921  -0.00000000  0.87511024  1
  W  W5  1  0.34325079  0.50000000  0.12488976  1
  W  W6  1  0.65674921  0.50000000  0.87511024  1
  W  W7  1  0.84325079  -0.00000000  0.12488976  1
  N  N8  1  0.12992508  -0.00000000  0.55501361  1
  N  N9  1  0.37007492  0.50000000  0.44498639  1
  N  N10  1  0.46566033  0.50000000  0.05465642  1
  N  N11  1  0.30816637  0.00000000  0.97794633  1
  N  N12  1  0.03433967  -0.00000000  0.94534358  1
  N  N13  1  0.19183363  0.50000000  0.02205367  1
  N  N14  1  0.62992508  0.50000000  0.55501361  1
  N  N15  1  0.87007492  0.00000000  0.44498639  1
  N  N16  1  0.96566033  -0.00000000  0.05465642  1
  N  N17  1  0.80816637  0.50000000  0.97794633  1
  N  N18  1  0.53433967  0.50000000  0.94534358  1
  N  N19  1  0.69183363  -0.00000000  0.02205367  1
