# generated using pymatgen
data_La3Si6N11
_symmetry_space_group_name_H-M   'P 1'
_cell_length_a   10.24418698
_cell_length_b   10.24418698
_cell_length_c   4.88560655
_cell_angle_alpha   90.00000000
_cell_angle_beta   90.00000000
_cell_angle_gamma   90.00000000
_symmetry_Int_Tables_number   1
_chemical_formula_structural   La3Si6N11
_chemical_formula_sum   'La6 Si12 N22'
_cell_volume   512.71200061
_cell_formula_units_Z   2
loop_
 _symmetry_equiv_pos_site_id
 _symmetry_equiv_pos_as_xyz
  1  'x, y, z'
loop_
 _atom_site_type_symbol
 _atom_site_label
 _atom_site_symmetry_multiplicity
 _atom_site_fract_x
 _atom_site_fract_y
 _atom_site_fract_z
 _atom_site_occupancy
  La  La0  1  0.31877221  0.81877221  0.00878255  1
  La  La1  1  0.68122779  0.18122779  0.00878255  1
  La  La2  1  0.18122779  0.31877221  0.00878255  1
  La  La3  1  0.81877221  0.68122779  0.00878255  1
  La  La4  1  0.50000000  0.50000000  0.99757187  1
  La  La5  1  -0.00000000  -0.00000000  0.99757187  1
  Si  Si6  1  0.42125154  0.29095977  0.53424882  1
  Si  Si7  1  0.57874846  0.70904023  0.53424882  1
  Si  Si8  1  0.07874846  0.79095977  0.53424882  1
  Si  Si9  1  0.92125154  0.20904023  0.53424882  1
  Si  Si10  1  0.29095977  0.57874846  0.53424882  1
  Si  Si11  1  0.70904023  0.42125154  0.53424882  1
  Si  Si12  1  0.79095977  0.92125154  0.53424882  1
  Si  Si13  1  0.20904023  0.07874846  0.53424882  1
  Si  Si14  1  0.88318077  0.38318077  0.04482090  1
  Si  Si15  1  0.11681923  0.61681923  0.04482090  1
  Si  Si16  1  0.61681923  0.88318077  0.04482090  1
  Si  Si17  1  0.38318077  0.11681923  0.04482090  1
  N  N18  1  0.32156166  0.42043356  0.64263484  1
  N  N19  1  0.67843834  0.57956644  0.64263484  1
  N  N20  1  0.17843834  0.92043356  0.64263484  1
  N  N21  1  0.82156166  0.07956644  0.64263484  1
  N  N22  1  0.42043356  0.67843834  0.64263484  1
  N  N23  1  0.57956644  0.32156166  0.64263484  1
  N  N24  1  0.92043356  0.82156166  0.64263484  1
  N  N25  1  0.07956644  0.17843834  0.64263484  1
  N  N26  1  0.42520277  0.26795564  0.18120140  1
  N  N27  1  0.57479723  0.73204436  0.18120140  1
  N  N28  1  0.07479723  0.76795564  0.18120140  1
  N  N29  1  0.92520277  0.23204436  0.18120140  1
  N  N30  1  0.26795564  0.57479723  0.18120140  1
  N  N31  1  0.73204436  0.42520277  0.18120140  1
  N  N32  1  0.76795564  0.92520277  0.18120140  1
  N  N33  1  0.23204436  0.07479723  0.18120140  1
  N  N34  1  0.84581216  0.34581216  0.69884904  1
  N  N35  1  0.15418784  0.65418784  0.69884904  1
  N  N36  1  0.65418784  0.84581216  0.69884904  1
  N  N37  1  0.34581216  0.15418784  0.69884904  1
  N  N38  1  0.50000000  -0.00000000  0.06910291  1
  N  N39  1  -0.00000000  0.50000000  0.06910291  1
