# generated using pymatgen
data_AlAsO4
_symmetry_space_group_name_H-M   'P 1'
_cell_length_a   5.28298046
_cell_length_b   5.28298046
_cell_length_c   5.28298045
_cell_angle_alpha   87.57856837
_cell_angle_beta   121.40772347
_cell_angle_gamma   121.40772362
_symmetry_Int_Tables_number   1
_chemical_formula_structural   AlAsO4
_chemical_formula_sum   'Al1 As1 O4'
_cell_volume   101.94367400
_cell_formula_units_Z   1
loop_
 _symmetry_equiv_pos_site_id
 _symmetry_equiv_pos_as_xyz
  1  'x, y, z'
loop_
 _atom_site_type_symbol
 _atom_site_label
 _atom_site_symmetry_multiplicity
 _atom_site_fract_x
 _atom_site_fract_y
 _atom_site_fract_z
 _atom_site_occupancy
  O  O0  1  0.61579441  0.99841962  0.86813834  1
  O  O1  1  0.13028129  0.13186166  0.74765607  1
  O  O2  1  0.38420559  0.25234393  0.38262521  1
  O  O3  1  0.86971871  0.61737479  0.00158038  1
  Al  Al4  1  0.00000000  0.00000000  0.00000000  1
  As  As5  1  0.50000000  0.25000000  0.75000000  1
