# generated using pymatgen
data_K2ZnBr4
_symmetry_space_group_name_H-M   'P 1'
_cell_length_a   7.41874489
_cell_length_b   7.66314676
_cell_length_c   9.28128120
_cell_angle_alpha   90.00000000
_cell_angle_beta   108.53215374
_cell_angle_gamma   90.00000000
_symmetry_Int_Tables_number   1
_chemical_formula_structural   K2ZnBr4
_chemical_formula_sum   'K4 Zn2 Br8'
_cell_volume   500.28844316
_cell_formula_units_Z   2
loop_
 _symmetry_equiv_pos_site_id
 _symmetry_equiv_pos_as_xyz
  1  'x, y, z'
loop_
 _atom_site_type_symbol
 _atom_site_label
 _atom_site_symmetry_multiplicity
 _atom_site_fract_x
 _atom_site_fract_y
 _atom_site_fract_z
 _atom_site_occupancy
  K  K0  1  0.77211150  0.24293824  0.57212423  1
  K  K1  1  0.22788850  0.74293824  0.42787577  1
  K  K2  1  0.71150584  0.24364046  0.04744683  1
  K  K3  1  0.28849416  0.74364046  0.95255317  1
  Zn  Zn4  1  0.28022877  0.25731731  0.20421530  1
  Zn  Zn5  1  0.71977123  0.75731731  0.79578470  1
  Br  Br6  1  0.10320497  0.27047183  0.93411610  1
  Br  Br7  1  0.89679503  0.77047183  0.06588390  1
  Br  Br8  1  0.07761854  0.26721521  0.36478379  1
  Br  Br9  1  0.92238146  0.76721521  0.63521621  1
  Br  Br10  1  0.48804448  0.00210735  0.26004772  1
  Br  Br11  1  0.51195552  0.50210735  0.73995228  1
  Br  Br12  1  0.50525027  0.50111959  0.26649011  1
  Br  Br13  1  0.49474973  0.00111959  0.73350989  1
