# generated using pymatgen
data_NaMo(PO4)2
_symmetry_space_group_name_H-M   'P 1'
_cell_length_a   5.31231909
_cell_length_b   10.83118233
_cell_length_c   11.77758482
_cell_angle_alpha   90.00000000
_cell_angle_beta   90.00000000
_cell_angle_gamma   90.00000000
_symmetry_Int_Tables_number   1
_chemical_formula_structural   NaMo(PO4)2
_chemical_formula_sum   'Na4 Mo4 P8 O32'
_cell_volume   677.66688033
_cell_formula_units_Z   4
loop_
 _symmetry_equiv_pos_site_id
 _symmetry_equiv_pos_as_xyz
  1  'x, y, z'
loop_
 _atom_site_type_symbol
 _atom_site_label
 _atom_site_symmetry_multiplicity
 _atom_site_fract_x
 _atom_site_fract_y
 _atom_site_fract_z
 _atom_site_occupancy
  Na  Na0  1  0.70952036  0.30222407  0.62076706  1
  Na  Na1  1  0.29047964  0.80222407  0.87923294  1
  Na  Na2  1  0.79047964  0.69777593  0.12076706  1
  Na  Na3  1  0.20952036  0.19777593  0.37923294  1
  Mo  Mo4  1  0.23989831  0.41102814  0.13949313  1
  Mo  Mo5  1  0.73989831  0.08897186  0.86050687  1
  Mo  Mo6  1  0.76010169  0.91102814  0.36050687  1
  Mo  Mo7  1  0.26010169  0.58897186  0.63949313  1
  P  P8  1  0.75937794  0.63477344  0.81976099  1
  P  P9  1  0.24062206  0.13477344  0.68023901  1
  P  P10  1  0.74062206  0.36522656  0.31976099  1
  P  P11  1  0.25794121  0.90878372  0.54530633  1
  P  P12  1  0.24205879  0.09121628  0.04530633  1
  P  P13  1  0.25937794  0.86522656  0.18023901  1
  P  P14  1  0.75794121  0.59121628  0.45469367  1
  P  P15  1  0.74205879  0.40878372  0.95469367  1
  O  O16  1  0.99715414  0.05319754  0.98616942  1
  O  O17  1  0.53547100  0.66250054  0.74000673  1
  O  O18  1  0.01284090  0.66204019  0.76027463  1
  O  O19  1  0.49715414  0.44680246  0.01383058  1
  O  O20  1  0.52987172  0.54476736  0.52233107  1
  O  O21  1  0.98715910  0.16204019  0.73972537  1
  O  O22  1  0.96452900  0.33749946  0.24000673  1
  O  O23  1  0.77027514  0.29953126  0.43035998  1
  O  O24  1  0.03547100  0.83749946  0.25999327  1
  O  O25  1  0.75064396  0.05422572  0.30019048  1
  O  O26  1  0.25346786  0.22594544  0.07674719  1
  O  O27  1  0.02987172  0.95523264  0.47766893  1
  O  O28  1  0.22972486  0.79953126  0.06964002  1
  O  O29  1  0.25178312  0.01597323  0.16387129  1
  O  O30  1  0.75178312  0.48402677  0.83612871  1
  O  O31  1  0.51284090  0.83795981  0.23972537  1
  O  O32  1  0.27027514  0.20046874  0.56964002  1
  O  O33  1  0.24821688  0.98402677  0.66387129  1
  O  O34  1  0.74935604  0.94577428  0.80019048  1
  O  O35  1  0.48715910  0.33795981  0.26027463  1
  O  O36  1  0.72972486  0.70046874  0.93035998  1
  O  O37  1  0.50284586  0.94680246  0.48616942  1
  O  O38  1  0.24653214  0.77405456  0.57674719  1
  O  O39  1  0.74821688  0.51597323  0.33612871  1
  O  O40  1  0.00284586  0.55319754  0.51383058  1
  O  O41  1  0.75346786  0.27405456  0.92325281  1
  O  O42  1  0.25064396  0.44577428  0.69980952  1
  O  O43  1  0.47012828  0.04476736  0.97766893  1
  O  O44  1  0.46452900  0.16250054  0.75999327  1
  O  O45  1  0.97012828  0.45523264  0.02233107  1
  O  O46  1  0.74653214  0.72594544  0.42325281  1
  O  O47  1  0.24935604  0.55422572  0.19980952  1
