# generated using pymatgen
data_Cs2Al2As2O7
_symmetry_space_group_name_H-M   'P 1'
_cell_length_a   5.56240766
_cell_length_b   7.34830677
_cell_length_c   7.34830710
_cell_angle_alpha   76.01021258
_cell_angle_beta   67.76029586
_cell_angle_gamma   67.76030185
_symmetry_Int_Tables_number   1
_chemical_formula_structural   Cs2Al2As2O7
_chemical_formula_sum   'Cs2 Al2 As2 O7'
_cell_volume   255.62464764
_cell_formula_units_Z   1
loop_
 _symmetry_equiv_pos_site_id
 _symmetry_equiv_pos_as_xyz
  1  'x, y, z'
loop_
 _atom_site_type_symbol
 _atom_site_label
 _atom_site_symmetry_multiplicity
 _atom_site_fract_x
 _atom_site_fract_y
 _atom_site_fract_z
 _atom_site_occupancy
  Cs  Cs0  1  1.00000000  0.65552246  0.34447754  1
  Cs  Cs1  1  0.50000000  0.30107773  0.69892227  1
  Al  Al2  1  0.16201687  0.90035936  0.77560689  1
  Al  Al3  1  0.83798313  0.22439311  0.09964064  1
  As  As4  1  0.29995712  0.08374755  0.31633822  1
  As  As5  1  0.70004288  0.68366178  0.91625245  1
  O  O6  1  0.49053231  0.25375048  0.25317512  1
  O  O7  1  0.00000000  0.99991135  0.00008865  1
  O  O8  1  0.16227568  0.09754729  0.57790135  1
  O  O9  1  0.00254209  0.25375048  0.25317512  1
  O  O10  1  0.50946769  0.74682488  0.74624952  1
  O  O11  1  0.99745791  0.74682488  0.74624952  1
  O  O12  1  0.83772432  0.42209865  0.90245271  1
