# generated using pymatgen
data_NbSbO4
_symmetry_space_group_name_H-M   'P 1'
_cell_length_a   5.05535336
_cell_length_b   5.68032823
_cell_length_c   11.99543463
_cell_angle_alpha   90.00000000
_cell_angle_beta   90.00000000
_cell_angle_gamma   90.00000000
_symmetry_Int_Tables_number   1
_chemical_formula_structural   NbSbO4
_chemical_formula_sum   'Nb4 Sb4 O16'
_cell_volume   344.46169737
_cell_formula_units_Z   4
loop_
 _symmetry_equiv_pos_site_id
 _symmetry_equiv_pos_as_xyz
  1  'x, y, z'
loop_
 _atom_site_type_symbol
 _atom_site_label
 _atom_site_symmetry_multiplicity
 _atom_site_fract_x
 _atom_site_fract_y
 _atom_site_fract_z
 _atom_site_occupancy
  O  O0  1  0.23026955  0.88190530  0.54326393  1
  O  O1  1  0.76973045  0.11809470  0.04326393  1
  O  O2  1  0.26973045  0.38190530  0.54326393  1
  O  O3  1  0.73026955  0.61809470  0.04326393  1
  O  O4  1  0.33537259  0.66026133  0.33972670  1
  O  O5  1  0.66462741  0.33973867  0.83972670  1
  O  O6  1  0.16462741  0.16026133  0.33972670  1
  O  O7  1  0.83537259  0.83973867  0.83972670  1
  O  O8  1  0.16439575  0.81938873  0.15079313  1
  O  O9  1  0.83560425  0.18061127  0.65079313  1
  O  O10  1  0.33560425  0.31938873  0.15079313  1
  O  O11  1  0.66439575  0.68061127  0.65079313  1
  O  O12  1  0.21411628  0.57415884  0.94096027  1
  O  O13  1  0.78588372  0.42584116  0.44096027  1
  O  O14  1  0.28588372  0.07415884  0.94096027  1
  O  O15  1  0.71411628  0.92584116  0.44096027  1
  Nb  Nb16  1  0.50904457  0.61252511  0.49940904  1
  Nb  Nb17  1  0.49095543  0.38747489  0.99940904  1
  Nb  Nb18  1  0.99095543  0.11252511  0.49940904  1
  Nb  Nb19  1  0.00904457  0.88747489  0.99940904  1
  Sb  Sb20  1  0.44247263  0.97750941  0.25094693  1
  Sb  Sb21  1  0.55752737  0.02249059  0.75094693  1
  Sb  Sb22  1  0.05752737  0.47750941  0.25094693  1
  Sb  Sb23  1  0.94247263  0.52249059  0.75094693  1
