# generated using pymatgen
data_Li7SbO6
_symmetry_space_group_name_H-M   'P 1'
_cell_length_a   5.42292235
_cell_length_b   5.47258058
_cell_length_c   5.89679954
_cell_angle_alpha   63.57776163
_cell_angle_beta   64.33871379
_cell_angle_gamma   60.97611499
_symmetry_Int_Tables_number   1
_chemical_formula_structural   Li7SbO6
_chemical_formula_sum   'Li7 Sb1 O6'
_cell_volume   131.66467484
_cell_formula_units_Z   1
loop_
 _symmetry_equiv_pos_site_id
 _symmetry_equiv_pos_as_xyz
  1  'x, y, z'
loop_
 _atom_site_type_symbol
 _atom_site_label
 _atom_site_symmetry_multiplicity
 _atom_site_fract_x
 _atom_site_fract_y
 _atom_site_fract_z
 _atom_site_occupancy
  Li  Li0  1  0.10461348  0.73981029  0.62059194  1
  Li  Li1  1  0.47608609  0.14393240  0.61853805  1
  Li  Li2  1  0.34824719  0.34576283  0.99294567  1
  Li  Li3  1  0.62348960  0.64101627  0.05133938  1
  Li  Li4  1  0.49824473  0.90145023  0.36704999  1
  Li  Li5  1  0.91225879  0.23992104  0.35521833  1
  Li  Li6  1  0.79230055  0.49963709  0.62534368  1
  O  O7  1  0.08703645  0.36281718  0.79176039  1
  O  O8  1  0.23480070  0.91744937  0.23510242  1
  O  O9  1  0.63382483  0.21798065  0.23175271  1
  O  O10  1  0.38054627  0.76586917  0.76623472  1
  O  O11  1  0.78334453  0.09453096  0.74747475  1
  O  O12  1  0.89134260  0.63243946  0.23294191  1
  Sb  Sb13  1  0.00476421  0.98638307  0.00640605  1
