# generated using pymatgen
data_Cd5(S2Cl)2
_symmetry_space_group_name_H-M   'P 1'
_cell_length_a   4.27010599
_cell_length_b   7.59556831
_cell_length_c   9.84912435
_cell_angle_alpha   99.10178870
_cell_angle_beta   90.00000000
_cell_angle_gamma   106.32538557
_symmetry_Int_Tables_number   1
_chemical_formula_structural   Cd5(S2Cl)2
_chemical_formula_sum   'Cd5 S4 Cl2'
_cell_volume   302.37211129
_cell_formula_units_Z   1
loop_
 _symmetry_equiv_pos_site_id
 _symmetry_equiv_pos_as_xyz
  1  'x, y, z'
loop_
 _atom_site_type_symbol
 _atom_site_label
 _atom_site_symmetry_multiplicity
 _atom_site_fract_x
 _atom_site_fract_y
 _atom_site_fract_z
 _atom_site_occupancy
  Cd  Cd0  1  0.54981474  0.09962949  0.92271220  1
  Cd  Cd1  1  0.83946252  0.67892505  0.99524901  1
  Cd  Cd2  1  0.83548643  0.67097285  0.61975136  1
  Cd  Cd3  1  0.45439707  0.90879414  0.33645496  1
  Cd  Cd4  1  0.18473248  0.36946496  0.26532797  1
  S  S5  1  0.96107453  0.92214905  0.83697223  1
  S  S6  1  0.59505521  0.19011042  0.18505218  1
  S  S7  1  0.32497329  0.64994658  0.12501941  1
  S  S8  1  0.31051772  0.62103544  0.48542854  1
  Cl  Cl9  1  0.69568099  0.39136199  0.79528826  1
  Cl  Cl10  1  0.02688502  0.05377003  0.46441387  1
