# generated using pymatgen
data_Li2MnSiO4
_symmetry_space_group_name_H-M   'P 1'
_cell_length_a   4.51364445
_cell_length_b   5.34287339
_cell_length_c   4.51364445
_cell_angle_alpha   65.01389200
_cell_angle_beta   90.00000000
_cell_angle_gamma   114.98610800
_symmetry_Int_Tables_number   1
_chemical_formula_structural   Li2MnSiO4
_chemical_formula_sum   'Li2 Mn1 Si1 O4'
_cell_volume   87.29487586
_cell_formula_units_Z   1
loop_
 _symmetry_equiv_pos_site_id
 _symmetry_equiv_pos_as_xyz
  1  'x, y, z'
loop_
 _atom_site_type_symbol
 _atom_site_label
 _atom_site_symmetry_multiplicity
 _atom_site_fract_x
 _atom_site_fract_y
 _atom_site_fract_z
 _atom_site_occupancy
  Li  Li0  1  0.25000000  0.50000000  0.25000000  1
  Li  Li1  1  0.75000000  0.50000000  0.75000000  1
  Mn  Mn2  1  0.00000000  0.00000000  0.00000000  1
  Si  Si3  1  0.50000000  0.00000000  0.50000000  1
  O  O4  1  0.40360034  0.22778064  0.17581970  1
  O  O5  1  0.82418030  0.22778064  0.59639966  1
  O  O6  1  0.59639966  0.77221936  0.40360034  1
  O  O7  1  0.17581970  0.77221936  0.82418030  1
