# generated using pymatgen
data_Ta2Pb2O7
_symmetry_space_group_name_H-M   'P 1'
_cell_length_a   7.65489309
_cell_length_b   7.65968460
_cell_length_c   7.65960725
_cell_angle_alpha   60.00311804
_cell_angle_beta   59.97477888
_cell_angle_gamma   59.97668345
_symmetry_Int_Tables_number   1
_chemical_formula_structural   Ta2Pb2O7
_chemical_formula_sum   'Ta4 Pb4 O14'
_cell_volume   317.46243242
_cell_formula_units_Z   2
loop_
 _symmetry_equiv_pos_site_id
 _symmetry_equiv_pos_as_xyz
  1  'x, y, z'
loop_
 _atom_site_type_symbol
 _atom_site_label
 _atom_site_symmetry_multiplicity
 _atom_site_fract_x
 _atom_site_fract_y
 _atom_site_fract_z
 _atom_site_occupancy
  Ta  Ta0  1  0.49991610  0.00007529  0.50004214  1
  Ta  Ta1  1  0.49994523  0.50007845  -0.00002479  1
  Ta  Ta2  1  0.99997791  0.49994805  0.50000286  1
  Ta  Ta3  1  0.50003769  0.49998664  0.50001838  1
  Pb  Pb4  1  -0.00005020  0.00001142  0.99996804  1
  Pb  Pb5  1  0.50015876  0.99989022  0.00004807  1
  Pb  Pb6  1  0.99994999  0.49995136  0.00001475  1
  Pb  Pb7  1  0.00004123  -0.00010913  0.50001642  1
  O  O8  1  0.12518900  0.12497154  0.12499145  1
  O  O9  1  0.55928125  0.19084891  0.19057325  1
  O  O10  1  0.55928557  0.19039272  0.55939709  1
  O  O11  1  0.19092945  0.55926859  0.19047182  1
  O  O12  1  0.55928310  0.55940667  0.19027619  1
  O  O13  1  0.19078555  0.19067238  0.55916288  1
  O  O14  1  0.80946142  0.44069289  0.44072437  1
  O  O15  1  0.19045803  0.55936025  0.55928992  1
  O  O16  1  0.44067599  0.80962974  0.44062780  1
  O  O17  1  0.44074255  0.44062987  0.80972018  1
  O  O18  1  0.80922354  0.80936479  0.44077435  1
  O  O19  1  0.80908571  0.44074957  0.80951131  1
  O  O20  1  0.44074399  0.80914889  0.80943083  1
  O  O21  1  0.87487814  0.87503088  0.87496269  1
