# generated using pymatgen
data_Hf3N2O3
_symmetry_space_group_name_H-M   'P 1'
_cell_length_a   4.04943198
_cell_length_b   5.62843796
_cell_length_c   10.57302350
_cell_angle_alpha   90.29346859
_cell_angle_beta   90.00000000
_cell_angle_gamma   111.08359353
_symmetry_Int_Tables_number   1
_chemical_formula_structural   Hf3N2O3
_chemical_formula_sum   'Hf6 N4 O6'
_cell_volume   224.84468509
_cell_formula_units_Z   2
loop_
 _symmetry_equiv_pos_site_id
 _symmetry_equiv_pos_as_xyz
  1  'x, y, z'
loop_
 _atom_site_type_symbol
 _atom_site_label
 _atom_site_symmetry_multiplicity
 _atom_site_fract_x
 _atom_site_fract_y
 _atom_site_fract_z
 _atom_site_occupancy
  Hf  Hf0  1  0.14546191  0.29092382  0.56543635  1
  Hf  Hf1  1  0.14686675  0.29373351  0.93727573  1
  Hf  Hf2  1  0.19310403  0.38620806  0.24808674  1
  Hf  Hf3  1  0.80754032  0.61508065  0.75653742  1
  Hf  Hf4  1  0.85793187  0.71586273  0.05853071  1
  Hf  Hf5  1  0.86193173  0.72386245  0.43767246  1
  N  N6  1  0.29963276  0.59926552  0.42662921  1
  N  N7  1  0.30312184  0.60624267  0.08083051  1
  N  N8  1  0.23764140  0.47528281  0.74449590  1
  N  N9  1  0.70095716  0.40191531  0.92563453  1
  O  O10  1  0.04540563  0.09081126  0.11704697  1
  O  O11  1  0.04302824  0.08605647  0.38141979  1
  O  O12  1  0.95328020  0.90656039  0.61262134  1
  O  O13  1  0.95595439  0.91190878  0.88423659  1
  O  O14  1  0.69310593  0.38621087  0.57119932  1
  O  O15  1  0.75503685  0.51007370  0.25234743  1
