# generated using pymatgen
data_Mg(BH4)2
_symmetry_space_group_name_H-M   'P 1'
_cell_length_a   4.31188528
_cell_length_b   6.09677431
_cell_length_c   8.39071301
_cell_angle_alpha   90.00000000
_cell_angle_beta   90.00000000
_cell_angle_gamma   90.00000000
_symmetry_Int_Tables_number   1
_chemical_formula_structural   Mg(BH4)2
_chemical_formula_sum   'Mg2 B4 H16'
_cell_volume   220.58002590
_cell_formula_units_Z   2
loop_
 _symmetry_equiv_pos_site_id
 _symmetry_equiv_pos_as_xyz
  1  'x, y, z'
loop_
 _atom_site_type_symbol
 _atom_site_label
 _atom_site_symmetry_multiplicity
 _atom_site_fract_x
 _atom_site_fract_y
 _atom_site_fract_z
 _atom_site_occupancy
  Mg  Mg0  1  0.00000000  0.69836366  0.50061943  1
  Mg  Mg1  1  0.00000000  0.30163634  0.00061943  1
  B  B2  1  0.00000000  0.51795647  0.24493907  1
  B  B3  1  0.00000000  0.48204353  0.74493907  1
  B  B4  1  0.50000000  0.10237203  0.97881159  1
  B  B5  1  0.50000000  0.89762797  0.47881159  1
  H  H6  1  0.27978704  0.94181512  0.56684873  1
  H  H7  1  0.50000000  0.00816140  0.35985479  1
  H  H8  1  0.50000000  0.99183860  0.85985479  1
  H  H9  1  0.00000000  0.41675831  0.37216687  1
  H  H10  1  0.00000000  0.71855520  0.25574207  1
  H  H11  1  0.27978704  0.05818488  0.06684873  1
  H  H12  1  0.75993199  0.53169304  0.67624815  1
  H  H13  1  0.24006801  0.46830696  0.17624815  1
  H  H14  1  0.00000000  0.28144480  0.75574207  1
  H  H15  1  0.50000000  0.70036956  0.44270244  1
  H  H16  1  0.72021296  0.05818488  0.06684873  1
  H  H17  1  0.00000000  0.58324169  0.87216687  1
  H  H18  1  0.72021296  0.94181512  0.56684873  1
  H  H19  1  0.24006801  0.53169304  0.67624815  1
  H  H20  1  0.75993199  0.46830696  0.17624815  1
  H  H21  1  0.50000000  0.29963044  0.94270244  1
