# generated using pymatgen
data_LiAlSe2
_symmetry_space_group_name_H-M   'P 1'
_cell_length_a   6.61595715
_cell_length_b   6.91611215
_cell_length_c   8.36035743
_cell_angle_alpha   90.00000000
_cell_angle_beta   90.00000000
_cell_angle_gamma   90.00000000
_symmetry_Int_Tables_number   1
_chemical_formula_structural   LiAlSe2
_chemical_formula_sum   'Li4 Al4 Se8'
_cell_volume   382.54238044
_cell_formula_units_Z   4
loop_
 _symmetry_equiv_pos_site_id
 _symmetry_equiv_pos_as_xyz
  1  'x, y, z'
loop_
 _atom_site_type_symbol
 _atom_site_label
 _atom_site_symmetry_multiplicity
 _atom_site_fract_x
 _atom_site_fract_y
 _atom_site_fract_z
 _atom_site_occupancy
  Li  Li0  1  0.00320729  0.58785546  0.87838129  1
  Li  Li1  1  0.50320729  0.41214454  0.12161871  1
  Li  Li2  1  0.50320729  0.91214454  0.37838129  1
  Li  Li3  1  0.00320729  0.08785546  0.62161871  1
  Al  Al4  1  0.99979390  0.57309284  0.37399302  1
  Al  Al5  1  0.49979390  0.42690716  0.62600698  1
  Al  Al6  1  0.49979390  0.92690716  0.87399302  1
  Al  Al7  1  0.99979390  0.07309284  0.12600698  1
  Se  Se8  1  0.11305500  0.90588706  0.36349189  1
  Se  Se9  1  0.61305500  0.09411294  0.63650811  1
  Se  Se10  1  0.61305500  0.59411294  0.86349189  1
  Se  Se11  1  0.11305500  0.40588706  0.13650811  1
  Se  Se12  1  0.63374381  0.56340800  0.38340178  1
  Se  Se13  1  0.13374381  0.43659200  0.61659822  1
  Se  Se14  1  0.13374381  0.93659200  0.88340178  1
  Se  Se15  1  0.63374381  0.06340800  0.11659822  1
