# generated using pymatgen
data_CsCuCl3
_symmetry_space_group_name_H-M   'P 1'
_cell_length_a   7.37954609
_cell_length_b   7.37954609
_cell_length_c   18.49081480
_cell_angle_alpha   90.00000000
_cell_angle_beta   90.00000000
_cell_angle_gamma   119.99999998
_symmetry_Int_Tables_number   1
_chemical_formula_structural   CsCuCl3
_chemical_formula_sum   'Cs6 Cu6 Cl18'
_cell_volume   872.05922266
_cell_formula_units_Z   6
loop_
 _symmetry_equiv_pos_site_id
 _symmetry_equiv_pos_as_xyz
  1  'x, y, z'
loop_
 _atom_site_type_symbol
 _atom_site_label
 _atom_site_symmetry_multiplicity
 _atom_site_fract_x
 _atom_site_fract_y
 _atom_site_fract_z
 _atom_site_occupancy
  Cl  Cl0  1  0.35906128  0.14792204  0.92721817  1
  Cl  Cl1  1  0.85207796  0.21113924  0.26055150  1
  Cl  Cl2  1  0.78886076  0.64093872  0.59388483  1
  Cl  Cl3  1  0.21113924  0.35906128  0.09388483  1
  Cl  Cl4  1  0.64093872  0.78886076  0.73944850  1
  Cl  Cl5  1  0.64093872  0.85207796  0.42721817  1
  Cl  Cl6  1  0.14792204  0.78886076  0.76055150  1
  Cl  Cl7  1  0.85207796  0.64093872  0.90611517  1
  Cl  Cl8  1  0.78886076  0.14792204  0.57278183  1
  Cl  Cl9  1  0.21113924  0.85207796  0.07278183  1
  Cl  Cl10  1  0.14792204  0.35906128  0.40611517  1
  Cl  Cl11  1  0.35906128  0.21113924  0.23944850  1
  Cl  Cl12  1  0.89575748  0.79151496  0.25000000  1
  Cl  Cl13  1  0.10424252  0.89575748  0.41666667  1
  Cl  Cl14  1  0.79151496  0.89575748  0.08333333  1
  Cl  Cl15  1  0.20848504  0.10424252  0.58333333  1
  Cl  Cl16  1  0.89575748  0.10424252  0.91666667  1
  Cl  Cl17  1  0.10424252  0.20848504  0.75000000  1
  Cu  Cu18  1  0.93257598  0.00000000  0.50000000  1
  Cu  Cu19  1  0.93257598  0.93257598  0.66666667  1
  Cu  Cu20  1  0.00000000  0.06742402  0.33333333  1
  Cu  Cu21  1  0.00000000  0.93257598  0.83333333  1
  Cu  Cu22  1  0.06742402  0.06742402  0.16666667  1
  Cu  Cu23  1  0.06742402  0.00000000  0.00000000  1
  Cs  Cs24  1  0.64602052  0.29204104  0.75000000  1
  Cs  Cs25  1  0.35397948  0.64602052  0.91666667  1
  Cs  Cs26  1  0.29204104  0.64602052  0.58333333  1
  Cs  Cs27  1  0.70795896  0.35397948  0.08333333  1
  Cs  Cs28  1  0.64602052  0.35397948  0.41666667  1
  Cs  Cs29  1  0.35397948  0.70795896  0.25000000  1
