# generated using pymatgen
data_SbBr3
_symmetry_space_group_name_H-M   'P 1'
_cell_length_a   4.46307333
_cell_length_b   12.33696491
_cell_length_c   14.09944092
_cell_angle_alpha   90.00000000
_cell_angle_beta   90.00000000
_cell_angle_gamma   90.00000000
_symmetry_Int_Tables_number   1
_chemical_formula_structural   SbBr3
_chemical_formula_sum   'Sb4 Br12'
_cell_volume   776.32620141
_cell_formula_units_Z   4
loop_
 _symmetry_equiv_pos_site_id
 _symmetry_equiv_pos_as_xyz
  1  'x, y, z'
loop_
 _atom_site_type_symbol
 _atom_site_label
 _atom_site_symmetry_multiplicity
 _atom_site_fract_x
 _atom_site_fract_y
 _atom_site_fract_z
 _atom_site_occupancy
  Br  Br0  1  0.51836571  0.38678874  0.37686949  1
  Br  Br1  1  0.01836571  0.11321126  0.62313051  1
  Br  Br2  1  0.48163429  0.88678874  0.12313051  1
  Br  Br3  1  0.98163429  0.61321126  0.87686949  1
  Br  Br4  1  0.96222220  0.47452171  0.11683727  1
  Br  Br5  1  0.46222220  0.02547829  0.88316273  1
  Br  Br6  1  0.03777780  0.97452171  0.38316273  1
  Br  Br7  1  0.53777780  0.52547829  0.61683727  1
  Br  Br8  1  0.94100464  0.30713848  0.88441490  1
  Br  Br9  1  0.44100464  0.19286152  0.11558510  1
  Br  Br10  1  0.05899536  0.80713848  0.61558510  1
  Br  Br11  1  0.55899536  0.69286152  0.38441490  1
  Sb  Sb12  1  0.24750297  0.54122932  0.46134788  1
  Sb  Sb13  1  0.74750297  0.95877068  0.53865212  1
  Sb  Sb14  1  0.75249703  0.04122932  0.03865212  1
  Sb  Sb15  1  0.25249703  0.45877068  0.96134788  1
