# generated using pymatgen
data_LiCoSiO4
_symmetry_space_group_name_H-M   'P 1'
_cell_length_a   4.48464790
_cell_length_b   5.31666020
_cell_length_c   4.48464790
_cell_angle_alpha   65.05461670
_cell_angle_beta   90.00000000
_cell_angle_gamma   114.94539518
_symmetry_Int_Tables_number   1
_chemical_formula_structural   LiCoSiO4
_chemical_formula_sum   'Li1 Co1 Si1 O4'
_cell_volume   85.82656264
_cell_formula_units_Z   1
loop_
 _symmetry_equiv_pos_site_id
 _symmetry_equiv_pos_as_xyz
  1  'x, y, z'
loop_
 _atom_site_type_symbol
 _atom_site_label
 _atom_site_symmetry_multiplicity
 _atom_site_fract_x
 _atom_site_fract_y
 _atom_site_fract_z
 _atom_site_occupancy
  Li  Li0  1  0.50000000  0.00000000  0.50000000  1
  Co  Co1  1  0.75000000  0.50000000  0.75000000  1
  Si  Si2  1  0.00000000  0.00000000  0.00000000  1
  O  O3  1  0.35145927  0.21480793  0.07669804  1
  O  O4  1  0.70849504  0.78519207  0.35145927  1
  O  O5  1  0.86334865  0.21480793  0.70849504  1
  O  O6  1  0.07669804  0.78519207  0.86334865  1
