# generated using pymatgen
data_Li3Mn(CO3)3
_symmetry_space_group_name_H-M   'P 1'
_cell_length_a   10.14902390
_cell_length_b   5.97688913
_cell_length_c   5.97688913
_cell_angle_alpha   105.17468834
_cell_angle_beta   90.00000000
_cell_angle_gamma   90.00000000
_symmetry_Int_Tables_number   1
_chemical_formula_structural   Li3Mn(CO3)3
_chemical_formula_sum   'Li6 Mn2 C6 O18'
_cell_volume   349.91414017
_cell_formula_units_Z   2
loop_
 _symmetry_equiv_pos_site_id
 _symmetry_equiv_pos_as_xyz
  1  'x, y, z'
loop_
 _atom_site_type_symbol
 _atom_site_label
 _atom_site_symmetry_multiplicity
 _atom_site_fract_x
 _atom_site_fract_y
 _atom_site_fract_z
 _atom_site_occupancy
  Li  Li0  1  0.00000000  0.09059991  0.09059991  1
  Li  Li1  1  0.25000000  0.39210537  0.35475332  1
  Li  Li2  1  0.25000000  0.75349353  0.19391372  1
  Li  Li3  1  0.50000000  0.09059991  0.09059991  1
  Li  Li4  1  0.75000000  0.19391372  0.75349353  1
  Li  Li5  1  0.75000000  0.35475332  0.39210537  1
  Mn  Mn6  1  0.25000000  0.14909113  0.72677667  1
  Mn  Mn7  1  0.75000000  0.72677667  0.14909113  1
  C  C8  1  0.01617467  0.15714035  0.55013131  1
  C  C9  1  0.25000000  0.72537388  0.74217723  1
  C  C10  1  0.48382533  0.15714035  0.55013131  1
  C  C11  1  0.51617467  0.55013131  0.15714035  1
  C  C12  1  0.75000000  0.74217723  0.72537388  1
  C  C13  1  0.98382533  0.55013131  0.15714035  1
  O  O14  1  0.05850181  0.14187905  0.75635851  1
  O  O15  1  0.10776001  0.15372715  0.39892321  1
  O  O16  1  0.10584564  0.51526500  0.17109455  1
  O  O17  1  0.25000000  0.51721473  0.75857492  1
  O  O18  1  0.25000000  0.90419002  0.92988452  1
  O  O19  1  0.25000000  0.77805850  0.54647538  1
  O  O20  1  0.39415436  0.51526500  0.17109455  1
  O  O21  1  0.39223999  0.15372715  0.39892321  1
  O  O22  1  0.44149819  0.14187905  0.75635851  1
  O  O23  1  0.55850181  0.75635851  0.14187905  1
  O  O24  1  0.60776001  0.39892321  0.15372715  1
  O  O25  1  0.60584564  0.17109455  0.51526500  1
  O  O26  1  0.75000000  0.54647538  0.77805850  1
  O  O27  1  0.75000000  0.75857492  0.51721473  1
  O  O28  1  0.75000000  0.92988452  0.90419002  1
  O  O29  1  0.89415436  0.17109455  0.51526500  1
  O  O30  1  0.89223999  0.39892321  0.15372715  1
  O  O31  1  0.94149819  0.75635851  0.14187905  1
