# generated using pymatgen
data_Al(HO)3
_symmetry_space_group_name_H-M   'P 1'
_cell_length_a   9.02519780
_cell_length_b   5.21406673
_cell_length_c   9.58300559
_cell_angle_alpha   90.00000000
_cell_angle_beta   91.16459034
_cell_angle_gamma   90.00000000
_symmetry_Int_Tables_number   1
_chemical_formula_structural   Al(HO)3
_chemical_formula_sum   'Al8 H24 O24'
_cell_volume   450.86376798
_cell_formula_units_Z   8
loop_
 _symmetry_equiv_pos_site_id
 _symmetry_equiv_pos_as_xyz
  1  'x, y, z'
loop_
 _atom_site_type_symbol
 _atom_site_label
 _atom_site_symmetry_multiplicity
 _atom_site_fract_x
 _atom_site_fract_y
 _atom_site_fract_z
 _atom_site_occupancy
  Al  Al0  1  0.33668054  0.99819913  0.52249332  1
  Al  Al1  1  0.83668054  0.50180087  0.02249332  1
  Al  Al2  1  0.67067365  0.99073950  0.52250623  1
  Al  Al3  1  0.17067365  0.50926050  0.02250623  1
  Al  Al4  1  0.16984863  0.50047716  0.52255290  1
  Al  Al5  1  0.66984863  0.99952284  0.02255290  1
  Al  Al6  1  0.83724434  0.49421262  0.52235948  1
  Al  Al7  1  0.33724434  0.00578738  0.02235948  1
  H  H8  1  0.31843955  0.69169464  0.72210997  1
  H  H9  1  0.81843955  0.80830536  0.22210997  1
  H  H10  1  0.60032527  0.39499033  0.44387864  1
  H  H11  1  0.68143991  0.32343856  0.22177103  1
  H  H12  1  0.10032527  0.10500967  0.94387864  1
  H  H13  1  0.18143991  0.17656144  0.72177203  1
  H  H14  1  0.83636492  0.16244142  0.71985118  1
  H  H15  1  0.33636492  0.33755858  0.21985118  1
  H  H16  1  0.09671135  0.89951541  0.45763463  1
  H  H17  1  0.59671135  0.60048459  0.95763463  1
  H  H18  1  0.00355764  0.63865140  0.72005634  1
  H  H19  1  0.50355764  0.86134860  0.22005634  1
  H  H20  1  0.00474172  0.19312437  0.45654135  1
  H  H21  1  0.50474172  0.30687563  0.95654135  1
  H  H22  1  0.50889150  0.15811646  0.71890309  1
  H  H23  1  0.00889150  0.34188354  0.21890309  1
  H  H24  1  0.48803224  0.68980663  0.40359769  1
  H  H25  1  0.98803224  0.81019337  0.90359769  1
  H  H26  1  0.89956981  0.90256139  0.39976076  1
  H  H27  1  0.39956981  0.59743861  0.89976076  1
  H  H28  1  0.67323287  0.66027416  0.71757715  1
  H  H29  1  0.17323287  0.83972584  0.21757715  1
  H  H30  1  0.40401768  0.40029672  0.46665084  1
  H  H31  1  0.90401768  0.09970328  0.96665084  1
  O  O32  1  0.31928201  0.68673575  0.61893394  1
  O  O33  1  0.81928201  0.81326425  0.11893394  1
  O  O34  1  0.68695433  0.30755632  0.40811010  1
  O  O35  1  0.18695433  0.19244368  0.90811010  1
  O  O36  1  0.82178518  0.17715015  0.61788066  1
  O  O37  1  0.32178518  0.32284985  0.11788066  1
  O  O38  1  0.17931746  0.81984288  0.40963874  1
  O  O39  1  0.67931746  0.68015712  0.90963874  1
  O  O40  1  0.00456745  0.62710374  0.61712812  1
  O  O41  1  0.50456745  0.87289626  0.11712812  1
  O  O42  1  0.00192146  0.35894721  0.40916014  1
  O  O43  1  0.50192146  0.14105279  0.90916014  1
  O  O44  1  0.50707363  0.12628339  0.61724225  1
  O  O45  1  0.00707363  0.37371661  0.11724225  1
  O  O46  1  0.49619131  0.87507853  0.40472813  1
  O  O47  1  0.99619131  0.62492147  0.90472813  1
  O  O48  1  0.19208640  0.18615311  0.61918958  1
  O  O49  1  0.69208640  0.31384689  0.11918958  1
  O  O50  1  0.80910550  0.80299199  0.40343769  1
  O  O51  1  0.30910550  0.69700801  0.90343769  1
  O  O52  1  0.69067009  0.67755948  0.61673963  1
  O  O53  1  0.19067009  0.82244052  0.11674063  1
  O  O54  1  0.32158557  0.32596978  0.41229043  1
  O  O55  1  0.82158557  0.17403022  0.91229043  1
