# generated using pymatgen
data_AgBiS2
_symmetry_space_group_name_H-M   'P 1'
_cell_length_a   7.95641743
_cell_length_b   10.60638955
_cell_length_c   7.01200606
_cell_angle_alpha   29.07203591
_cell_angle_beta   55.46283698
_cell_angle_gamma   41.35505235
_symmetry_Int_Tables_number   1
_chemical_formula_structural   AgBiS2
_chemical_formula_sum   'Ag2 Bi2 S4'
_cell_volume   182.51182303
_cell_formula_units_Z   2
loop_
 _symmetry_equiv_pos_site_id
 _symmetry_equiv_pos_as_xyz
  1  'x, y, z'
loop_
 _atom_site_type_symbol
 _atom_site_label
 _atom_site_symmetry_multiplicity
 _atom_site_fract_x
 _atom_site_fract_y
 _atom_site_fract_z
 _atom_site_occupancy
  Ag  Ag0  1  0.24179859  0.50613529  0.99659783  1
  Ag  Ag1  1  0.49524771  0.99402911  0.00970882  1
  Bi  Bi2  1  0.99778765  0.99436587  0.00825760  1
  Bi  Bi3  1  0.75165318  0.49857000  0.00087615  1
  S  S4  1  0.00018246  0.50109639  0.50629960  1
  S  S5  1  0.51756897  0.48540580  0.50563683  1
  S  S6  1  0.25811755  0.98942815  0.51702315  1
  S  S7  1  0.75479389  0.00184239  0.48903701  1
