# generated using pymatgen
data_CrPO4
_symmetry_space_group_name_H-M   'P 1'
_cell_length_a   5.36371836
_cell_length_b   6.41551005
_cell_length_c   5.36376535
_cell_angle_alpha   77.95690949
_cell_angle_beta   59.94154577
_cell_angle_gamma   102.04282019
_symmetry_Int_Tables_number   1
_chemical_formula_structural   CrPO4
_chemical_formula_sum   'Cr2 P2 O8'
_cell_volume   145.14965962
_cell_formula_units_Z   2
loop_
 _symmetry_equiv_pos_site_id
 _symmetry_equiv_pos_as_xyz
  1  'x, y, z'
loop_
 _atom_site_type_symbol
 _atom_site_label
 _atom_site_symmetry_multiplicity
 _atom_site_fract_x
 _atom_site_fract_y
 _atom_site_fract_z
 _atom_site_occupancy
  O  O0  1  0.71074352  0.63604793  0.23325796  1
  O  O1  1  0.82214766  0.07192227  0.22155308  1
  O  O2  1  0.07469431  0.36394906  0.36931703  1
  O  O3  1  0.23325461  0.86395039  0.71074453  1
  O  O4  1  0.75017246  0.92805503  0.79350193  1
  O  O5  1  0.22155702  0.42808287  0.82214777  1
  O  O6  1  0.79349978  0.57194052  0.75017771  1
  O  O7  1  0.36931481  0.13605310  0.07469523  1
  P  P8  1  0.13115934  0.24999999  0.13115868  1
  P  P9  1  0.88115277  0.75000024  0.88115186  1
  Cr  Cr10  1  0.81800040  0.25000423  0.81799121  1
  Cr  Cr11  1  0.56800498  0.74999510  0.56800353  1
