# generated using pymatgen
data_NdGaO3
_symmetry_space_group_name_H-M   'P 1'
_cell_length_a   5.47123570
_cell_length_b   5.61586650
_cell_length_c   7.80168326
_cell_angle_alpha   90.00000000
_cell_angle_beta   90.00000000
_cell_angle_gamma   90.00000000
_symmetry_Int_Tables_number   1
_chemical_formula_structural   NdGaO3
_chemical_formula_sum   'Nd4 Ga4 O12'
_cell_volume   239.71240778
_cell_formula_units_Z   4
loop_
 _symmetry_equiv_pos_site_id
 _symmetry_equiv_pos_as_xyz
  1  'x, y, z'
loop_
 _atom_site_type_symbol
 _atom_site_label
 _atom_site_symmetry_multiplicity
 _atom_site_fract_x
 _atom_site_fract_y
 _atom_site_fract_z
 _atom_site_occupancy
  O  O0  1  0.20820630  0.20706510  0.44473866  1
  O  O1  1  0.79179370  0.79293490  0.94473866  1
  O  O2  1  0.29179370  0.70706510  0.44473866  1
  O  O3  1  0.70820630  0.29293490  0.94473866  1
  O  O4  1  0.20819919  0.20705892  0.03820023  1
  O  O5  1  0.79180081  0.79294108  0.53820023  1
  O  O6  1  0.29180081  0.70705892  0.03820023  1
  O  O7  1  0.70819919  0.29294108  0.53820023  1
  O  O8  1  0.41256747  0.97723907  0.74148227  1
  O  O9  1  0.58743253  0.02276093  0.24148227  1
  O  O10  1  0.08743253  0.47723907  0.74148227  1
  O  O11  1  0.91256747  0.52276093  0.24148227  1
  Ga  Ga12  1  0.99998756  0.50000480  0.99149552  1
  Ga  Ga13  1  0.00001244  0.49999520  0.49149552  1
  Ga  Ga14  1  0.50001244  0.00000480  0.99149552  1
  Ga  Ga15  1  0.49998756  0.99999520  0.49149552  1
  Nd  Nd16  1  0.48688556  0.44820235  0.24148332  1
  Nd  Nd17  1  0.51311444  0.55179765  0.74148332  1
  Nd  Nd18  1  0.01311444  0.94820235  0.24148332  1
  Nd  Nd19  1  0.98688556  0.05179765  0.74148332  1
