# generated using pymatgen
data_H2O
_symmetry_space_group_name_H-M   'P 1'
_cell_length_a   4.45057171
_cell_length_b   4.45057171
_cell_length_c   7.27885769
_cell_angle_alpha   90.00000000
_cell_angle_beta   90.00000000
_cell_angle_gamma   60.02691935
_symmetry_Int_Tables_number   1
_chemical_formula_structural   H2O
_chemical_formula_sum   'H8 O4'
_cell_volume   124.89446947
_cell_formula_units_Z   4
loop_
 _symmetry_equiv_pos_site_id
 _symmetry_equiv_pos_as_xyz
  1  'x, y, z'
loop_
 _atom_site_type_symbol
 _atom_site_label
 _atom_site_symmetry_multiplicity
 _atom_site_fract_x
 _atom_site_fract_y
 _atom_site_fract_z
 _atom_site_occupancy
  H  H0  1  0.33731565  0.33731565  0.69712533  1
  H  H1  1  0.66268435  0.66268435  0.19712533  1
  H  H2  1  0.45977574  0.45977574  0.51958303  1
  H  H3  1  0.54022426  0.54022426  0.01958303  1
  H  H4  1  0.90917006  0.55174516  0.48322584  1
  H  H5  1  0.55174516  0.90917006  0.48322584  1
  H  H6  1  0.09082994  0.44825484  0.98322584  1
  H  H7  1  0.44825484  0.09082994  0.98322584  1
  O  O8  1  0.33539131  0.33539131  0.56024918  1
  O  O9  1  0.66460869  0.66460869  0.06024918  1
  O  O10  1  0.66655574  0.66655574  0.43459079  1
  O  O11  1  0.33344426  0.33344426  0.93459079  1
