# generated using pymatgen
data_LiNi4(PO4)3
_symmetry_space_group_name_H-M   'P 1'
_cell_length_a   6.61380881
_cell_length_b   6.61380881
_cell_length_c   10.36522630
_cell_angle_alpha   71.39522337
_cell_angle_beta   71.39522336
_cell_angle_gamma   89.99999998
_symmetry_Int_Tables_number   1
_chemical_formula_structural   LiNi4(PO4)3
_chemical_formula_sum   'Li2 Ni8 P6 O24'
_cell_volume   404.62770961
_cell_formula_units_Z   2
loop_
 _symmetry_equiv_pos_site_id
 _symmetry_equiv_pos_as_xyz
  1  'x, y, z'
loop_
 _atom_site_type_symbol
 _atom_site_label
 _atom_site_symmetry_multiplicity
 _atom_site_fract_x
 _atom_site_fract_y
 _atom_site_fract_z
 _atom_site_occupancy
  Li  Li0  1  0.50000046  0.49999929  0.00000022  1
  Li  Li1  1  0.25000067  0.74999929  0.49999970  1
  O  O2  1  0.30841245  0.09393305  0.38188132  1
  O  O3  1  0.20437308  0.91533378  0.70813619  1
  O  O4  1  0.54562715  0.87346953  0.79186402  1
  O  O5  1  0.08466594  0.91250852  0.29186390  1
  O  O6  1  0.84393295  0.55841235  0.88188202  1
  O  O7  1  0.90606651  0.69029373  0.61811865  1
  O  O8  1  0.27418560  0.55970556  0.88188191  1
  O  O9  1  0.47581500  0.69158695  0.61811856  1
  O  O10  1  0.90501554  0.15236755  0.08604202  1
  O  O11  1  0.44029372  0.15606695  0.11811887  1
  O  O12  1  0.84763257  0.99105863  0.91395743  1
  O  O13  1  0.74105766  0.09763245  0.41395796  1
  O  O14  1  0.12653051  0.33749167  0.20813557  1
  O  O15  1  0.90236850  0.15501624  0.58604217  1
  O  O16  1  0.51158957  0.25894227  0.58604189  1
  O  O17  1  0.23840940  0.09498287  0.91395823  1
  O  O18  1  0.66533485  0.45437186  0.20813573  1
  O  O19  1  0.84498389  0.48840905  0.41395777  1
  O  O20  1  0.62346974  0.79562833  0.29186422  1
  O  O21  1  0.66250785  0.33466551  0.79186461  1
  O  O22  1  0.08749110  0.37652976  0.70813633  1
  O  O23  1  0.44158827  0.72581533  0.11811774  1
  O  O24  1  0.00894125  0.76158953  0.08604259  1
  O  O25  1  0.30970639  0.52418486  0.38188140  1
  P  P26  1  0.37500050  0.77399662  0.75000035  1
  P  P27  1  0.87499953  0.47600268  0.74999974  1
  P  P28  1  0.52399647  0.62499929  0.25000014  1
  P  P29  1  0.74999951  0.25000000  0.49999979  1
  P  P30  1  0.22600385  0.12500000  0.24999971  1
  P  P31  1  0.00000000  0.00000000  0.00000000  1
  Ni  Ni32  1  0.63045403  0.12500000  0.25000035  1
  Ni  Ni33  1  0.52264529  0.02264528  0.95471025  1
  Ni  Ni34  1  0.22735506  0.22735543  0.54528923  1
  Ni  Ni35  1  0.97735531  0.47735472  0.04528900  1
  Ni  Ni36  1  0.37500031  0.36954705  0.74999963  1
  Ni  Ni37  1  0.11954629  0.62499929  0.25000047  1
  Ni  Ni38  1  0.77264512  0.77264386  0.45471123  1
  Ni  Ni39  1  0.87499991  0.88045385  0.75000009  1
