# generated using pymatgen
data_SiO2
_symmetry_space_group_name_H-M   'P 1'
_cell_length_a   5.08853779
_cell_length_b   5.22988784
_cell_length_c   8.33443473
_cell_angle_alpha   90.00000000
_cell_angle_beta   90.00000000
_cell_angle_gamma   119.10989814
_symmetry_Int_Tables_number   1
_chemical_formula_structural   SiO2
_chemical_formula_sum   'Si4 O8'
_cell_volume   193.78403567
_cell_formula_units_Z   4
loop_
 _symmetry_equiv_pos_site_id
 _symmetry_equiv_pos_as_xyz
  1  'x, y, z'
loop_
 _atom_site_type_symbol
 _atom_site_label
 _atom_site_symmetry_multiplicity
 _atom_site_fract_x
 _atom_site_fract_y
 _atom_site_fract_z
 _atom_site_occupancy
  O  O0  1  0.62464095  0.51423920  0.70612473  1
  O  O1  1  0.11040176  0.48576080  0.79387527  1
  O  O2  1  0.37535905  0.48576080  0.20612473  1
  O  O3  1  0.88959824  0.51423920  0.29387527  1
  O  O4  1  0.33021074  0.66042148  0.50000000  1
  O  O5  1  0.66978926  0.33957852  0.00000000  1
  O  O6  1  0.40363573  0.00000000  0.25000000  1
  O  O7  1  0.59636427  0.00000000  0.75000000  1
  Si  Si8  1  0.74768993  0.33425515  0.81252382  1
  Si  Si9  1  0.41343478  0.66574485  0.68747618  1
  Si  Si10  1  0.25231007  0.66574485  0.31252382  1
  Si  Si11  1  0.58656522  0.33425515  0.18747618  1
