# generated using pymatgen
data_LaBiO3
_symmetry_space_group_name_H-M   'P 1'
_cell_length_a   6.27183982
_cell_length_b   6.27183982
_cell_length_c   6.27183979
_cell_angle_alpha   59.99758945
_cell_angle_beta   59.99758945
_cell_angle_gamma   59.99759029
_symmetry_Int_Tables_number   1
_chemical_formula_structural   LaBiO3
_chemical_formula_sum   'La2 Bi2 O6'
_cell_volume   174.44002516
_cell_formula_units_Z   2
loop_
 _symmetry_equiv_pos_site_id
 _symmetry_equiv_pos_as_xyz
  1  'x, y, z'
loop_
 _atom_site_type_symbol
 _atom_site_label
 _atom_site_symmetry_multiplicity
 _atom_site_fract_x
 _atom_site_fract_y
 _atom_site_fract_z
 _atom_site_occupancy
  La  La0  1  0.28027405  0.28027405  0.28027405  1
  La  La1  1  0.78027405  0.78027405  0.78027405  1
  Bi  Bi2  1  0.00052200  0.00052200  0.00052200  1
  Bi  Bi3  1  0.50052200  0.50052200  0.50052200  1
  O  O4  1  0.17261086  0.90377116  0.62454293  1
  O  O5  1  0.40377116  0.67261086  0.12454293  1
  O  O6  1  0.12454293  0.40377116  0.67261086  1
  O  O7  1  0.90377116  0.62454293  0.17261086  1
  O  O8  1  0.62454293  0.17261086  0.90377116  1
  O  O9  1  0.67261086  0.12454293  0.40377116  1
