# generated using pymatgen
data_MgSnN2
_symmetry_space_group_name_H-M   'P 1'
_cell_length_a   5.96613331
_cell_length_b   6.93988991
_cell_length_c   5.53473292
_cell_angle_alpha   90.00000000
_cell_angle_beta   90.00000000
_cell_angle_gamma   90.00000000
_symmetry_Int_Tables_number   1
_chemical_formula_structural   MgSnN2
_chemical_formula_sum   'Mg4 Sn4 N8'
_cell_volume   229.16178851
_cell_formula_units_Z   4
loop_
 _symmetry_equiv_pos_site_id
 _symmetry_equiv_pos_as_xyz
  1  'x, y, z'
loop_
 _atom_site_type_symbol
 _atom_site_label
 _atom_site_symmetry_multiplicity
 _atom_site_fract_x
 _atom_site_fract_y
 _atom_site_fract_z
 _atom_site_occupancy
  Mg  Mg0  1  0.58332534  0.87538981  0.99327890  1
  Mg  Mg1  1  0.41667466  0.12461019  0.49327890  1
  Mg  Mg2  1  0.91667466  0.37538981  0.49327890  1
  Mg  Mg3  1  0.08332534  0.62461019  0.99327890  1
  Sn  Sn4  1  0.58341962  0.37437125  0.99588017  1
  Sn  Sn5  1  0.41658038  0.62562875  0.49588017  1
  Sn  Sn6  1  0.91658038  0.87437125  0.49588017  1
  Sn  Sn7  1  0.08341962  0.12562875  0.99588017  1
  N  N8  1  0.57916304  0.37726181  0.37531186  1
  N  N9  1  0.42083696  0.62273819  0.87531186  1
  N  N10  1  0.92083696  0.87726181  0.87531186  1
  N  N11  1  0.07916304  0.12273819  0.37531186  1
  N  N12  1  0.58467137  0.87312973  0.37653006  1
  N  N13  1  0.41532863  0.12687027  0.87653006  1
  N  N14  1  0.91532863  0.37312973  0.87653006  1
  N  N15  1  0.08467137  0.62687027  0.37653006  1
