# generated using pymatgen
data_KCa(PO3)3
_symmetry_space_group_name_H-M   'P 1'
_cell_length_a   6.92176156
_cell_length_b   6.92176156
_cell_length_c   10.49772114
_cell_angle_alpha   90.00000000
_cell_angle_beta   90.00000000
_cell_angle_gamma   120.00000000
_symmetry_Int_Tables_number   1
_chemical_formula_structural   KCa(PO3)3
_chemical_formula_sum   'K2 Ca2 P6 O18'
_cell_volume   435.57097603
_cell_formula_units_Z   2
loop_
 _symmetry_equiv_pos_site_id
 _symmetry_equiv_pos_as_xyz
  1  'x, y, z'
loop_
 _atom_site_type_symbol
 _atom_site_label
 _atom_site_symmetry_multiplicity
 _atom_site_fract_x
 _atom_site_fract_y
 _atom_site_fract_z
 _atom_site_occupancy
  O  O0  1  0.05343785  0.38554152  0.37273092  1
  O  O1  1  0.61445848  0.94656215  0.62726908  1
  O  O2  1  0.61445848  0.66789633  0.37273092  1
  O  O3  1  0.33210367  0.94656215  0.37273092  1
  O  O4  1  0.61445848  0.66789633  0.12726908  1
  O  O5  1  0.33210367  0.94656215  0.12726908  1
  O  O6  1  0.05343785  0.38554152  0.12726908  1
  O  O7  1  0.33210367  0.38554152  0.87273092  1
  O  O8  1  0.05343785  0.66789633  0.87273092  1
  O  O9  1  0.05343785  0.66789633  0.62726908  1
  O  O10  1  0.80725219  0.77407957  0.75000000  1
  O  O11  1  0.96682738  0.19274781  0.75000000  1
  O  O12  1  0.22592043  0.03317262  0.75000000  1
  O  O13  1  0.22592043  0.19274781  0.25000000  1
  O  O14  1  0.96682738  0.77407957  0.25000000  1
  O  O15  1  0.80725219  0.03317262  0.25000000  1
  O  O16  1  0.61445848  0.94656215  0.87273092  1
  O  O17  1  0.33210367  0.38554152  0.62726908  1
  P  P18  1  0.73201219  0.77132607  0.25000000  1
  P  P19  1  0.22867393  0.96068612  0.25000000  1
  P  P20  1  0.03931388  0.26798781  0.25000000  1
  P  P21  1  0.03931388  0.77132607  0.75000000  1
  P  P22  1  0.22867393  0.26798781  0.75000000  1
  P  P23  1  0.73201219  0.96068612  0.75000000  1
  K  K24  1  0.66666667  0.33333333  0.50000000  1
  K  K25  1  0.66666667  0.33333333  0.00000000  1
  Ca  Ca26  1  0.33333333  0.66666667  0.50000000  1
  Ca  Ca27  1  0.33333333  0.66666667  0.00000000  1
