# generated using pymatgen
data_CaSO4
_symmetry_space_group_name_H-M   'P 1'
_cell_length_a   6.35805929
_cell_length_b   7.04505642
_cell_length_c   7.05653040
_cell_angle_alpha   119.94623159
_cell_angle_beta   90.00000000
_cell_angle_gamma   90.00000000
_symmetry_Int_Tables_number   1
_chemical_formula_structural   CaSO4
_chemical_formula_sum   'Ca3 S3 O12'
_cell_volume   273.88354845
_cell_formula_units_Z   3
loop_
 _symmetry_equiv_pos_site_id
 _symmetry_equiv_pos_as_xyz
  1  'x, y, z'
loop_
 _atom_site_type_symbol
 _atom_site_label
 _atom_site_symmetry_multiplicity
 _atom_site_fract_x
 _atom_site_fract_y
 _atom_site_fract_z
 _atom_site_occupancy
  Ca  Ca0  1  0.33373099  0.50000000  0.50000000  1
  Ca  Ca1  1  0.66626901  0.00000000  0.50000000  1
  Ca  Ca2  1  0.00000000  0.00000000  0.00000000  1
  S  S3  1  0.16614985  0.00000000  0.50000000  1
  S  S4  1  0.83385015  0.50000000  0.50000000  1
  S  S5  1  0.50000000  0.00000000  0.00000000  1
  O  O6  1  0.64110691  0.05328519  0.86448990  1
  O  O7  1  0.97481749  0.63445800  0.68909812  1
  O  O8  1  0.97481749  0.36554200  0.31090188  1
  O  O9  1  0.30734338  0.18823253  0.55082219  1
  O  O10  1  0.30734338  0.81176747  0.44917781  1
  O  O11  1  0.64110691  0.94671481  0.13551010  1
  O  O12  1  0.69265662  0.63741034  0.44917781  1
  O  O13  1  0.02518251  0.94535988  0.31090188  1
  O  O14  1  0.35889309  0.18879529  0.13551010  1
  O  O15  1  0.35889309  0.81120471  0.86448990  1
  O  O16  1  0.02518251  0.05464012  0.68909812  1
  O  O17  1  0.69265662  0.36258966  0.55082219  1
