# generated using pymatgen
data_Li6WN4
_symmetry_space_group_name_H-M   'P 1'
_cell_length_a   4.94342061
_cell_length_b   6.71241854
_cell_length_c   6.71241854
_cell_angle_alpha   90.00000000
_cell_angle_beta   90.00000000
_cell_angle_gamma   90.00000000
_symmetry_Int_Tables_number   1
_chemical_formula_structural   Li6WN4
_chemical_formula_sum   'Li12 W2 N8'
_cell_volume   222.73354045
_cell_formula_units_Z   2
loop_
 _symmetry_equiv_pos_site_id
 _symmetry_equiv_pos_as_xyz
  1  'x, y, z'
loop_
 _atom_site_type_symbol
 _atom_site_label
 _atom_site_symmetry_multiplicity
 _atom_site_fract_x
 _atom_site_fract_y
 _atom_site_fract_z
 _atom_site_occupancy
  Li  Li0  1  0.75000000  0.03700539  0.96299461  1
  Li  Li1  1  0.25000000  0.53700539  0.03700539  1
  Li  Li2  1  0.25000000  0.96299461  0.46299461  1
  Li  Li3  1  0.75000000  0.46299461  0.53700539  1
  Li  Li4  1  0.25000000  0.96299461  0.03700539  1
  Li  Li5  1  0.75000000  0.46299461  0.96299461  1
  Li  Li6  1  0.75000000  0.03700539  0.53700539  1
  Li  Li7  1  0.25000000  0.53700539  0.46299461  1
  Li  Li8  1  0.16860970  0.75000000  0.75000000  1
  Li  Li9  1  0.66860970  0.75000000  0.75000000  1
  Li  Li10  1  0.33139030  0.25000000  0.25000000  1
  Li  Li11  1  0.83139030  0.25000000  0.25000000  1
  N  N12  1  0.44950618  0.00862721  0.75000000  1
  N  N13  1  0.44950618  0.49137279  0.75000000  1
  N  N14  1  0.94950618  0.75000000  0.49137279  1
  N  N15  1  0.94950618  0.75000000  0.00862721  1
  N  N16  1  0.05049382  0.25000000  0.50862721  1
  N  N17  1  0.55049382  0.99137279  0.25000000  1
  N  N18  1  0.55049382  0.50862721  0.25000000  1
  N  N19  1  0.05049382  0.25000000  0.99137279  1
  W  W20  1  0.75000000  0.75000000  0.25000000  1
  W  W21  1  0.25000000  0.25000000  0.75000000  1
