# generated using pymatgen
data_Li2CrO2
_symmetry_space_group_name_H-M   'P 1'
_cell_length_a   3.49451729
_cell_length_b   3.49456034
_cell_length_c   5.47704590
_cell_angle_alpha   79.51531855
_cell_angle_beta   79.51370823
_cell_angle_gamma   50.34151042
_symmetry_Int_Tables_number   1
_chemical_formula_structural   Li2CrO2
_chemical_formula_sum   'Li2 Cr1 O2'
_cell_volume   50.44018558
_cell_formula_units_Z   1
loop_
 _symmetry_equiv_pos_site_id
 _symmetry_equiv_pos_as_xyz
  1  'x, y, z'
loop_
 _atom_site_type_symbol
 _atom_site_label
 _atom_site_symmetry_multiplicity
 _atom_site_fract_x
 _atom_site_fract_y
 _atom_site_fract_z
 _atom_site_occupancy
  Li  Li0  1  0.32734723  0.32708641  0.63084423  1
  Li  Li1  1  0.67290604  0.67266769  0.36916544  1
  Cr  Cr2  1  0.99941333  0.00057342  -0.00003117  1
  O  O3  1  0.38854235  0.38819061  0.25884976  1
  O  O4  1  0.61179104  0.61148188  0.74117275  1
