# generated using pymatgen
data_FePO4
_symmetry_space_group_name_H-M   'P 1'
_cell_length_a   10.42315303
_cell_length_b   14.31537871
_cell_length_c   5.23831472
_cell_angle_alpha   90.00000000
_cell_angle_beta   90.00000000
_cell_angle_gamma   90.00000000
_symmetry_Int_Tables_number   1
_chemical_formula_structural   FePO4
_chemical_formula_sum   'Fe8 P8 O32'
_cell_volume   781.61618384
_cell_formula_units_Z   8
loop_
 _symmetry_equiv_pos_site_id
 _symmetry_equiv_pos_as_xyz
  1  'x, y, z'
loop_
 _atom_site_type_symbol
 _atom_site_label
 _atom_site_symmetry_multiplicity
 _atom_site_fract_x
 _atom_site_fract_y
 _atom_site_fract_z
 _atom_site_occupancy
  Fe  Fe0  1  0.03732267  0.75271521  0.06859454  1
  Fe  Fe1  1  0.22006788  0.00079910  0.55344520  1
  Fe  Fe2  1  0.27993212  0.50079910  0.55344520  1
  Fe  Fe3  1  0.46267733  0.25271521  0.06859454  1
  Fe  Fe4  1  0.53732267  0.75271521  0.93140546  1
  Fe  Fe5  1  0.72006788  0.00079910  0.44655480  1
  Fe  Fe6  1  0.77993212  0.50079910  0.44655480  1
  Fe  Fe7  1  0.96267733  0.25271521  0.93140546  1
  P  P8  1  0.03065492  0.37564703  0.42798341  1
  P  P9  1  0.21204505  0.12803806  0.05366701  1
  P  P10  1  0.28795495  0.62803806  0.05366701  1
  P  P11  1  0.46934508  0.87564703  0.42798341  1
  P  P12  1  0.53065492  0.37564703  0.57201659  1
  P  P13  1  0.71204505  0.12803806  0.94633299  1
  P  P14  1  0.78795495  0.62803806  0.94633299  1
  P  P15  1  0.96934508  0.87564703  0.57201659  1
  O  O16  1  0.99214409  0.85379063  0.85758458  1
  O  O17  1  0.04854122  0.96330152  0.49889347  1
  O  O18  1  0.01075140  0.79010581  0.41119732  1
  O  O19  1  0.06858185  0.14985320  0.00951501  1
  O  O20  1  0.17418871  0.39763211  0.47308095  1
  O  O21  1  0.25095382  0.54162214  0.89106313  1
  O  O22  1  0.20635373  0.71467199  0.98285859  1
  O  O23  1  0.23808106  0.10516619  0.33789713  1
  O  O24  1  0.26191894  0.60516619  0.33789713  1
  O  O25  1  0.29364627  0.21467199  0.98285859  1
  O  O26  1  0.24904618  0.04162214  0.89106313  1
  O  O27  1  0.32581129  0.89763211  0.47308095  1
  O  O28  1  0.43141815  0.64985320  0.00951501  1
  O  O29  1  0.48924860  0.29010581  0.41119732  1
  O  O30  1  0.45145878  0.46330152  0.49889347  1
  O  O31  1  0.50785591  0.35379063  0.85758458  1
  O  O32  1  0.49214409  0.85379063  0.14241542  1
  O  O33  1  0.54854122  0.96330152  0.50110653  1
  O  O34  1  0.51075140  0.79010581  0.58880268  1
  O  O35  1  0.56858185  0.14985320  0.99048499  1
  O  O36  1  0.67418871  0.39763211  0.52691905  1
  O  O37  1  0.75095382  0.54162214  0.10893687  1
  O  O38  1  0.70635373  0.71467199  0.01714141  1
  O  O39  1  0.73808106  0.10516619  0.66210287  1
  O  O40  1  0.76191894  0.60516619  0.66210287  1
  O  O41  1  0.79364627  0.21467199  0.01714141  1
  O  O42  1  0.74904618  0.04162214  0.10893687  1
  O  O43  1  0.82581129  0.89763211  0.52691905  1
  O  O44  1  0.93141815  0.64985320  0.99048499  1
  O  O45  1  0.98924860  0.29010581  0.58880268  1
  O  O46  1  0.95145878  0.46330152  0.50110653  1
  O  O47  1  0.00785591  0.35379063  0.14241542  1
