# generated using pymatgen
data_ErAgSe2
_symmetry_space_group_name_H-M   'P 1'
_cell_length_a   4.24621119
_cell_length_b   6.82197458
_cell_length_c   13.74417994
_cell_angle_alpha   90.00000000
_cell_angle_beta   90.00000000
_cell_angle_gamma   90.00000000
_symmetry_Int_Tables_number   1
_chemical_formula_structural   ErAgSe2
_chemical_formula_sum   'Er4 Ag4 Se8'
_cell_volume   398.13514814
_cell_formula_units_Z   4
loop_
 _symmetry_equiv_pos_site_id
 _symmetry_equiv_pos_as_xyz
  1  'x, y, z'
loop_
 _atom_site_type_symbol
 _atom_site_label
 _atom_site_symmetry_multiplicity
 _atom_site_fract_x
 _atom_site_fract_y
 _atom_site_fract_z
 _atom_site_occupancy
  Se  Se0  1  0.77085509  0.51231791  0.52708356  1
  Se  Se1  1  0.27085509  0.98768209  0.47291644  1
  Se  Se2  1  0.22914491  0.01231791  0.97291644  1
  Se  Se3  1  0.72914491  0.48768209  0.02708356  1
  Se  Se4  1  0.77717873  0.91143992  0.72606382  1
  Se  Se5  1  0.72282127  0.08856008  0.22606382  1
  Se  Se6  1  0.22282127  0.41143992  0.77393618  1
  Se  Se7  1  0.27717873  0.58856008  0.27393618  1
  Ag  Ag8  1  0.50705587  0.70569750  0.87358388  1
  Ag  Ag9  1  0.49294413  0.20569750  0.62641612  1
  Ag  Ag10  1  0.00705587  0.79430250  0.12641612  1
  Ag  Ag11  1  0.99294413  0.29430250  0.37358388  1
  Er  Er12  1  0.22152043  0.29280123  0.12768566  1
  Er  Er13  1  0.72152043  0.20719877  0.87231434  1
  Er  Er14  1  0.77847957  0.79280123  0.37231434  1
  Er  Er15  1  0.27847957  0.70719877  0.62768566  1
