# generated using pymatgen
data_BeH8(NO5)2
_symmetry_space_group_name_H-M   'P 1'
_cell_length_a   8.86449461
_cell_length_b   8.86449461
_cell_length_c   8.86449461
_cell_angle_alpha   97.24952024
_cell_angle_beta   97.24952024
_cell_angle_gamma   138.38451906
_symmetry_Int_Tables_number   1
_chemical_formula_structural   BeH8(NO5)2
_chemical_formula_sum   'Be2 H16 N4 O20'
_cell_volume   432.43638530
_cell_formula_units_Z   2
loop_
 _symmetry_equiv_pos_site_id
 _symmetry_equiv_pos_as_xyz
  1  'x, y, z'
loop_
 _atom_site_type_symbol
 _atom_site_label
 _atom_site_symmetry_multiplicity
 _atom_site_fract_x
 _atom_site_fract_y
 _atom_site_fract_z
 _atom_site_occupancy
  Be  Be0  1  0.25000000  0.75000000  0.50000000  1
  Be  Be1  1  0.50000000  0.50000000  0.00000000  1
  H  H2  1  0.46866368  0.22386438  0.03562677  1
  H  H3  1  0.56176240  0.02613562  0.74479931  1
  H  H4  1  0.18823760  0.43303691  0.96437323  1
  H  H5  1  0.28133632  0.81696309  0.25520069  1
  H  H6  1  0.56696309  0.53133632  0.75520069  1
  H  H7  1  0.97386438  0.71866368  0.53562677  1
  H  H8  1  0.77613562  0.81176240  0.24479931  1
  H  H9  1  0.18303691  0.43823760  0.46437323  1
  H  H10  1  0.96470302  0.35654556  0.33436647  1
  H  H11  1  0.72782091  0.89345444  0.10815746  1
  H  H12  1  0.02217909  0.63033655  0.66563353  1
  H  H13  1  0.78529698  0.61966345  0.89184254  1
  H  H14  1  0.36966345  0.03529698  0.39184254  1
  H  H15  1  0.10654556  0.21470302  0.83436647  1
  H  H16  1  0.64345444  0.97782091  0.60815746  1
  H  H17  1  0.38033655  0.27217909  0.16563353  1
  N  N18  1  0.67786299  0.12500000  0.05286299  1
  N  N19  1  0.07213701  0.62500000  0.94713701  1
  N  N20  1  0.37500000  0.32213701  0.44713701  1
  N  N21  1  0.87500000  0.92786299  0.55286299  1
  O  O22  1  0.56874704  0.12500000  0.94374704  1
  O  O23  1  0.18125296  0.62500000  0.05625296  1
  O  O24  1  0.37500000  0.43125296  0.55625296  1
  O  O25  1  0.87500000  0.81874704  0.44374704  1
  O  O26  1  0.69928208  0.18650416  0.19772291  1
  O  O27  1  0.76121875  0.06349584  0.01277791  1
  O  O28  1  0.98878125  0.50155916  0.80227709  1
  O  O29  1  0.05071792  0.74844084  0.98722209  1
  O  O30  1  0.49844084  0.30071792  0.48722209  1
  O  O31  1  0.93650416  0.94928208  0.69772291  1
  O  O32  1  0.81349584  0.01121875  0.51277791  1
  O  O33  1  0.25155916  0.23878125  0.30227709  1
  O  O34  1  0.46661603  0.32868678  0.08491250  1
  O  O35  1  0.50622572  0.92131322  0.63792925  1
  O  O36  1  0.24377428  0.38170353  0.91508750  1
  O  O37  1  0.28338397  0.86829647  0.36207075  1
  O  O38  1  0.61829647  0.53338397  0.86207075  1
  O  O39  1  0.07868678  0.71661603  0.58491250  1
  O  O40  1  0.67131322  0.75622572  0.13792925  1
  O  O41  1  0.13170353  0.49377428  0.41508750  1
