# generated using pymatgen
data_KGa3
_symmetry_space_group_name_H-M   'P 1'
_cell_length_a   6.35884512
_cell_length_b   6.35884511
_cell_length_c   8.73039585
_cell_angle_alpha   111.35703560
_cell_angle_beta   111.35703560
_cell_angle_gamma   89.99999998
_symmetry_Int_Tables_number   1
_chemical_formula_structural   KGa3
_chemical_formula_sum   'K3 Ga9'
_cell_volume   302.59353391
_cell_formula_units_Z   3
loop_
 _symmetry_equiv_pos_site_id
 _symmetry_equiv_pos_as_xyz
  1  'x, y, z'
loop_
 _atom_site_type_symbol
 _atom_site_label
 _atom_site_symmetry_multiplicity
 _atom_site_fract_x
 _atom_site_fract_y
 _atom_site_fract_z
 _atom_site_occupancy
  K  K0  1  0.12666153  0.62666153  0.25332305  1
  K  K1  1  0.37333847  0.87333847  0.74667695  1
  K  K2  1  0.00000000  0.00000000  0.00000000  1
  Ga  Ga3  1  0.77816864  0.98400704  0.55633728  1
  Ga  Ga4  1  0.01599296  0.22183136  0.44366272  1
  Ga  Ga5  1  0.69777389  0.39237661  0.78475323  1
  Ga  Ga6  1  0.60762339  0.30222611  0.21524677  1
  Ga  Ga7  1  0.60762339  0.91302066  0.21524677  1
  Ga  Ga8  1  0.08697934  0.39237661  0.78475323  1
  Ga  Ga9  1  0.77816864  0.57233024  0.55633728  1
  Ga  Ga10  1  0.42766976  0.22183136  0.44366272  1
  Ga  Ga11  1  0.50000000  0.50000000  0.00000000  1
