# generated using pymatgen
data_PbCN2
_symmetry_space_group_name_H-M   'P 1'
_cell_length_a   3.92451970
_cell_length_b   5.59566970
_cell_length_c   12.42091630
_cell_angle_alpha   90.00000000
_cell_angle_beta   90.00000000
_cell_angle_gamma   90.00000000
_symmetry_Int_Tables_number   1
_chemical_formula_structural   PbCN2
_chemical_formula_sum   'Pb4 C4 N8'
_cell_volume   272.76724661
_cell_formula_units_Z   4
loop_
 _symmetry_equiv_pos_site_id
 _symmetry_equiv_pos_as_xyz
  1  'x, y, z'
loop_
 _atom_site_type_symbol
 _atom_site_label
 _atom_site_symmetry_multiplicity
 _atom_site_fract_x
 _atom_site_fract_y
 _atom_site_fract_z
 _atom_site_occupancy
  Pb  Pb0  1  0.25000000  0.88282866  0.12865390  1
  Pb  Pb1  1  0.75000000  0.11717134  0.87134610  1
  Pb  Pb2  1  0.25000000  0.38282866  0.37134610  1
  Pb  Pb3  1  0.75000000  0.61717134  0.62865390  1
  C  C4  1  0.25000000  0.61920451  0.90013140  1
  C  C5  1  0.75000000  0.38079549  0.09986860  1
  C  C6  1  0.25000000  0.11920451  0.59986860  1
  C  C7  1  0.75000000  0.88079549  0.40013140  1
  N  N8  1  0.75000000  0.67367608  0.43821184  1
  N  N9  1  0.25000000  0.32632392  0.56178816  1
  N  N10  1  0.75000000  0.17367608  0.06178816  1
  N  N11  1  0.25000000  0.82632392  0.93821184  1
  N  N12  1  0.75000000  0.07972302  0.35889857  1
  N  N13  1  0.25000000  0.92027698  0.64110143  1
  N  N14  1  0.75000000  0.57972302  0.14110143  1
  N  N15  1  0.25000000  0.42027698  0.85889857  1
