# generated using pymatgen
data_LiMnF4
_symmetry_space_group_name_H-M   'P 1'
_cell_length_a   6.36073362
_cell_length_b   5.50277039
_cell_length_c   10.24958871
_cell_angle_alpha   90.03140544
_cell_angle_beta   144.49363896
_cell_angle_gamma   64.32349794
_symmetry_Int_Tables_number   1
_chemical_formula_structural   LiMnF4
_chemical_formula_sum   'Li2 Mn2 F8'
_cell_volume   138.92921520
_cell_formula_units_Z   2
loop_
 _symmetry_equiv_pos_site_id
 _symmetry_equiv_pos_as_xyz
  1  'x, y, z'
loop_
 _atom_site_type_symbol
 _atom_site_label
 _atom_site_symmetry_multiplicity
 _atom_site_fract_x
 _atom_site_fract_y
 _atom_site_fract_z
 _atom_site_occupancy
  Li  Li0  1  0.00660138  0.06825960  0.75066751  1
  Li  Li1  1  0.00937604  0.92686855  0.25303552  1
  Mn  Mn2  1  0.99793202  0.50632284  0.49653102  1
  Mn  Mn3  1  0.99491098  0.50278504  0.99527861  1
  F  F4  1  0.33954183  0.20482138  0.02372671  1
  F  F5  1  0.42098790  0.67240832  0.10600877  1
  F  F6  1  0.34086126  0.46071483  0.52385649  1
  F  F7  1  0.41949160  0.91365706  0.60502504  1
  F  F8  1  0.56701383  0.35960131  0.88135303  1
  F  F9  1  0.66044844  0.81830764  0.96796529  1
  F  F10  1  0.56762650  0.08348245  0.38239193  1
  F  F11  1  0.66364022  0.52872999  0.46983806  1
