# generated using pymatgen
data_LiVOF3
_symmetry_space_group_name_H-M   'P 1'
_cell_length_a   5.95165307
_cell_length_b   5.27688198
_cell_length_c   5.36340637
_cell_angle_alpha   90.00000000
_cell_angle_beta   116.33262997
_cell_angle_gamma   90.00000000
_symmetry_Int_Tables_number   1
_chemical_formula_structural   LiVOF3
_chemical_formula_sum   'Li2 V2 O2 F6'
_cell_volume   150.96528348
_cell_formula_units_Z   2
loop_
 _symmetry_equiv_pos_site_id
 _symmetry_equiv_pos_as_xyz
  1  'x, y, z'
loop_
 _atom_site_type_symbol
 _atom_site_label
 _atom_site_symmetry_multiplicity
 _atom_site_fract_x
 _atom_site_fract_y
 _atom_site_fract_z
 _atom_site_occupancy
  Li  Li0  1  0.47627270  0.26245643  0.72986097  1
  Li  Li1  1  0.52372730  0.76245643  0.27013903  1
  V  V2  1  0.00102517  0.04347511  0.26945217  1
  V  V3  1  0.99897483  0.54347511  0.73054783  1
  O  O4  1  0.95417092  0.79481125  0.51177244  1
  O  O5  1  0.04582908  0.29481125  0.48822756  1
  F  F6  1  0.35887810  0.55229116  0.93398552  1
  F  F7  1  0.97865948  0.73588288  0.03439301  1
  F  F8  1  0.36059821  0.97978418  0.42868445  1
  F  F9  1  0.63940179  0.47978418  0.57131555  1
  F  F10  1  0.02134052  0.23588288  0.96560699  1
  F  F11  1  0.64112190  0.05229116  0.06601448  1
