# generated using pymatgen
data_W(OF)2
_symmetry_space_group_name_H-M   'P 1'
_cell_length_a   7.72072168
_cell_length_b   3.88852948
_cell_length_c   6.60865776
_cell_angle_alpha   90.00000000
_cell_angle_beta   90.00000000
_cell_angle_gamma   90.00000000
_symmetry_Int_Tables_number   1
_chemical_formula_structural   W(OF)2
_chemical_formula_sum   'W2 O4 F4'
_cell_volume   198.40680094
_cell_formula_units_Z   2
loop_
 _symmetry_equiv_pos_site_id
 _symmetry_equiv_pos_as_xyz
  1  'x, y, z'
loop_
 _atom_site_type_symbol
 _atom_site_label
 _atom_site_symmetry_multiplicity
 _atom_site_fract_x
 _atom_site_fract_y
 _atom_site_fract_z
 _atom_site_occupancy
  W  W0  1  0.02226199  0.96187125  0.00000000  1
  W  W1  1  0.52226199  0.03812875  0.00000000  1
  O  O2  1  0.03170547  0.49177714  0.00000000  1
  O  O3  1  0.28385782  0.00288185  0.00000000  1
  O  O4  1  0.53170547  0.50822286  0.00000000  1
  O  O5  1  0.78385782  0.99711815  0.00000000  1
  F  F6  1  0.04252736  0.00410584  0.28440648  1
  F  F7  1  0.04252736  0.00410584  0.71559352  1
  F  F8  1  0.54252736  0.99589416  0.28440648  1
  F  F9  1  0.54252736  0.99589416  0.71559352  1
