# generated using pymatgen
data_Cs3Li2F5
_symmetry_space_group_name_H-M   'P 1'
_cell_length_a   4.24612413
_cell_length_b   4.24612501
_cell_length_c   11.71798415
_cell_angle_alpha   100.53957846
_cell_angle_beta   100.53958749
_cell_angle_gamma   89.47536693
_symmetry_Int_Tables_number   1
_chemical_formula_structural   Cs3Li2F5
_chemical_formula_sum   'Cs3 Li2 F5'
_cell_volume   204.13706727
_cell_formula_units_Z   1
loop_
 _symmetry_equiv_pos_site_id
 _symmetry_equiv_pos_as_xyz
  1  'x, y, z'
loop_
 _atom_site_type_symbol
 _atom_site_label
 _atom_site_symmetry_multiplicity
 _atom_site_fract_x
 _atom_site_fract_y
 _atom_site_fract_z
 _atom_site_occupancy
  Cs  Cs0  1  0.04912266  0.04912249  -0.00000438  1
  Cs  Cs1  1  0.41008675  0.41008663  0.72624549  1
  Cs  Cs2  1  0.68363352  0.68363428  0.27377087  1
  Li  Li3  1  0.28258087  0.28258078  0.43902722  1
  Li  Li4  1  0.84366895  0.84366874  0.56095459  1
  F  F5  1  0.54978104  0.54978092  0.00005617  1
  F  F6  1  0.17942541  0.17942580  0.27230277  1
  F  F7  1  0.23362462  0.73361564  0.49997816  1
  F  F8  1  0.73361556  0.23362432  0.49997820  1
  F  F9  1  0.90730062  0.90730039  0.72769091  1
