# generated using pymatgen
data_Na3AsS3
_symmetry_space_group_name_H-M   'P 1'
_cell_length_a   8.63413982
_cell_length_b   8.63413982
_cell_length_c   8.63413982
_cell_angle_alpha   90.00000000
_cell_angle_beta   90.00000000
_cell_angle_gamma   90.00000000
_symmetry_Int_Tables_number   1
_chemical_formula_structural   Na3AsS3
_chemical_formula_sum   'Na12 As4 S12'
_cell_volume   643.66105366
_cell_formula_units_Z   4
loop_
 _symmetry_equiv_pos_site_id
 _symmetry_equiv_pos_as_xyz
  1  'x, y, z'
loop_
 _atom_site_type_symbol
 _atom_site_label
 _atom_site_symmetry_multiplicity
 _atom_site_fract_x
 _atom_site_fract_y
 _atom_site_fract_z
 _atom_site_occupancy
  Na  Na0  1  0.58164292  0.58164292  0.58164292  1
  Na  Na1  1  0.91835708  0.41835708  0.08164292  1
  Na  Na2  1  0.08164292  0.91835708  0.41835708  1
  Na  Na3  1  0.41835708  0.08164292  0.91835708  1
  Na  Na4  1  0.31765201  0.31765201  0.31765201  1
  Na  Na5  1  0.18234799  0.68234799  0.81765201  1
  Na  Na6  1  0.81765201  0.18234799  0.68234799  1
  Na  Na7  1  0.68234799  0.81765201  0.18234799  1
  Na  Na8  1  0.81024125  0.81024125  0.81024125  1
  Na  Na9  1  0.68975875  0.18975875  0.31024125  1
  Na  Na10  1  0.31024125  0.68975875  0.18975875  1
  Na  Na11  1  0.18975875  0.31024125  0.68975875  1
  S  S12  1  0.77611262  0.10545459  0.00131219  1
  S  S13  1  0.72388738  0.89454541  0.50131219  1
  S  S14  1  0.27611262  0.39454541  0.99868781  1
  S  S15  1  0.10545459  0.00131219  0.77611262  1
  S  S16  1  0.22388738  0.60545459  0.49868781  1
  S  S17  1  0.49868781  0.22388738  0.60545459  1
  S  S18  1  0.60545459  0.49868781  0.22388738  1
  S  S19  1  0.89454541  0.50131219  0.72388738  1
  S  S20  1  0.99868781  0.27611262  0.39454541  1
  S  S21  1  0.39454541  0.99868781  0.27611262  1
  S  S22  1  0.00131219  0.77611262  0.10545459  1
  S  S23  1  0.50131219  0.72388738  0.89454541  1
  As  As24  1  0.97222798  0.52777202  0.47222798  1
  As  As25  1  0.47222798  0.97222798  0.52777202  1
  As  As26  1  0.02777202  0.02777202  0.02777202  1
  As  As27  1  0.52777202  0.47222798  0.97222798  1
