# generated using pymatgen
data_Ba3Ti3(BO6)2
_symmetry_space_group_name_H-M   'P 1'
_cell_length_a   8.88921484
_cell_length_b   8.88921484
_cell_length_c   3.85725145
_cell_angle_alpha   90.00000000
_cell_angle_beta   90.00000000
_cell_angle_gamma   120.00000000
_symmetry_Int_Tables_number   1
_chemical_formula_structural   Ba3Ti3(BO6)2
_chemical_formula_sum   'Ba3 Ti3 B2 O12'
_cell_volume   263.95833962
_cell_formula_units_Z   1
loop_
 _symmetry_equiv_pos_site_id
 _symmetry_equiv_pos_as_xyz
  1  'x, y, z'
loop_
 _atom_site_type_symbol
 _atom_site_label
 _atom_site_symmetry_multiplicity
 _atom_site_fract_x
 _atom_site_fract_y
 _atom_site_fract_z
 _atom_site_occupancy
  B  B0  1  0.66666667  0.33333333  0.00000000  1
  B  B1  1  0.33333333  0.66666667  0.00000000  1
  O  O2  1  0.18509400  0.50565746  0.00000000  1
  O  O3  1  0.50565746  0.18509400  0.00000000  1
  O  O4  1  0.81490600  0.32056347  0.00000000  1
  O  O5  1  0.67943653  0.49434254  0.00000000  1
  O  O6  1  0.49434254  0.67943653  0.00000000  1
  O  O7  1  0.32056347  0.81490600  0.00000000  1
  O  O8  1  0.00000000  0.26355047  0.50000000  1
  O  O9  1  0.26355047  0.00000000  0.50000000  1
  O  O10  1  0.73644953  0.73644953  0.50000000  1
  O  O11  1  0.00000000  0.81540624  0.00000000  1
  O  O12  1  0.81540624  0.00000000  0.00000000  1
  O  O13  1  0.18459376  0.18459376  0.00000000  1
  Ti  Ti14  1  0.76541574  0.76541574  0.00000000  1
  Ti  Ti15  1  0.23458426  0.00000000  0.00000000  1
  Ti  Ti16  1  0.00000000  0.23458426  0.00000000  1
  Ba  Ba17  1  0.40428524  0.40428524  0.50000000  1
  Ba  Ba18  1  0.59571476  0.00000000  0.50000000  1
  Ba  Ba19  1  0.00000000  0.59571476  0.50000000  1
