# generated using pymatgen
data_Ag2GeO3
_symmetry_space_group_name_H-M   'P 1'
_cell_length_a   4.75468184
_cell_length_b   7.14059722
_cell_length_c   10.55232949
_cell_angle_alpha   90.00000000
_cell_angle_beta   90.00000000
_cell_angle_gamma   90.00000000
_symmetry_Int_Tables_number   1
_chemical_formula_structural   Ag2GeO3
_chemical_formula_sum   'Ag8 Ge4 O12'
_cell_volume   358.26496579
_cell_formula_units_Z   4
loop_
 _symmetry_equiv_pos_site_id
 _symmetry_equiv_pos_as_xyz
  1  'x, y, z'
loop_
 _atom_site_type_symbol
 _atom_site_label
 _atom_site_symmetry_multiplicity
 _atom_site_fract_x
 _atom_site_fract_y
 _atom_site_fract_z
 _atom_site_occupancy
  Ag  Ag0  1  0.09635076  0.62209172  0.12404574  1
  Ag  Ag1  1  0.40364924  0.37790928  0.62404574  1
  Ag  Ag2  1  0.59634876  0.87791028  0.87595326  1
  Ag  Ag3  1  0.90364924  0.12209172  0.37595426  1
  Ag  Ag4  1  0.48030385  0.39310294  0.27921354  1
  Ag  Ag5  1  0.01969415  0.60689606  0.77921454  1
  Ag  Ag6  1  0.98030585  0.10689606  0.72078546  1
  Ag  Ag7  1  0.51969615  0.89310294  0.22078546  1
  Ge  Ge8  1  0.03258951  0.13134336  0.06404819  1
  Ge  Ge9  1  0.46740849  0.86865764  0.56404819  1
  Ge  Ge10  1  0.53259151  0.36865664  0.93595081  1
  Ge  Ge11  1  0.96741049  0.63134336  0.43595081  1
  O  O12  1  0.20462691  0.14072828  0.21313053  1
  O  O13  1  0.29537509  0.85927272  0.71313053  1
  O  O14  1  0.70462491  0.35927272  0.78686947  1
  O  O15  1  0.79537309  0.64072828  0.28686847  1
  O  O16  1  0.78336700  0.32357800  0.06128828  1
  O  O17  1  0.71663500  0.67642200  0.56128928  1
  O  O18  1  0.28336500  0.17642200  0.93871072  1
  O  O19  1  0.21663300  0.82357800  0.43871172  1
  O  O20  1  0.12706653  0.41391318  0.46086153  1
  O  O21  1  0.37293347  0.58608582  0.96086253  1
  O  O22  1  0.62706653  0.08608582  0.53913747  1
  O  O23  1  0.87293347  0.91391318  0.03913747  1
