# generated using pymatgen
data_Ca2Si5N8
_symmetry_space_group_name_H-M   'P 1'
_cell_length_a   5.63760775
_cell_length_b   7.74742297
_cell_length_c   9.75314351
_cell_angle_alpha   110.36539719
_cell_angle_beta   90.00000000
_cell_angle_gamma   111.33606490
_symmetry_Int_Tables_number   1
_chemical_formula_structural   Ca2Si5N8
_chemical_formula_sum   'Ca4 Si10 N16'
_cell_volume   368.05755310
_cell_formula_units_Z   2
loop_
 _symmetry_equiv_pos_site_id
 _symmetry_equiv_pos_as_xyz
  1  'x, y, z'
loop_
 _atom_site_type_symbol
 _atom_site_label
 _atom_site_symmetry_multiplicity
 _atom_site_fract_x
 _atom_site_fract_y
 _atom_site_fract_z
 _atom_site_occupancy
  N  N0  1  0.27855286  0.59097550  0.91601445  1
  N  N1  1  0.31242264  0.59097550  0.41601445  1
  N  N2  1  0.78617579  0.26192222  0.77279819  1
  N  N3  1  0.47574643  0.26192222  0.27279819  1
  N  N4  1  0.84774099  0.66788734  0.43526532  1
  N  N5  1  0.82014635  0.66788734  0.93526532  1
  N  N6  1  0.97792952  0.96239737  0.71752138  1
  N  N7  1  0.98446785  0.96239737  0.21752138  1
  N  N8  1  0.55087596  0.60664351  0.67599008  1
  N  N9  1  0.05576755  0.60664351  0.17599008  1
  N  N10  1  0.03717048  0.59057773  0.66971855  1
  N  N11  1  0.55340725  0.59057773  0.16971855  1
  N  N12  1  0.13947362  0.25731312  0.49678970  1
  N  N13  1  0.11783949  0.25731312  0.99678970  1
  N  N14  1  0.34832957  0.97354602  0.42983584  1
  N  N15  1  0.62521645  0.97354602  0.92983584  1
  Si  Si16  1  0.85780028  0.71122626  0.62640190  1
  Si  Si17  1  0.85342598  0.71122626  0.12640190  1
  Si  Si18  1  0.57043218  0.72494750  0.86810811  1
  Si  Si19  1  0.15451533  0.72494750  0.36810811  1
  Si  Si20  1  0.25095604  0.50847986  0.56310470  1
  Si  Si21  1  0.25752383  0.50847986  0.06310470  1
  Si  Si22  1  0.96522343  0.51122853  0.81813523  1
  Si  Si23  1  0.54600510  0.51122853  0.31813523  1
  Si  Si24  1  0.86295914  0.11535599  0.85311522  1
  Si  Si25  1  0.25239685  0.11535599  0.35311522  1
  Ca  Ca26  1  0.35628504  0.21828033  0.69662144  1
  Ca  Ca27  1  0.86199529  0.21828033  0.19662144  1
  Ca  Ca28  1  0.76509095  0.00201871  0.50247988  1
  Ca  Ca29  1  0.23692776  0.00201871  0.00247988  1
