# generated using pymatgen
data_HS8N
_symmetry_space_group_name_H-M   'P 1'
_cell_length_a   8.51802665
_cell_length_b   9.12818833
_cell_length_c   13.76201251
_cell_angle_alpha   90.00000000
_cell_angle_beta   90.00000000
_cell_angle_gamma   90.00000000
_symmetry_Int_Tables_number   1
_chemical_formula_structural   HS8N
_chemical_formula_sum   'H4 S32 N4'
_cell_volume   1070.05360511
_cell_formula_units_Z   4
loop_
 _symmetry_equiv_pos_site_id
 _symmetry_equiv_pos_as_xyz
  1  'x, y, z'
loop_
 _atom_site_type_symbol
 _atom_site_label
 _atom_site_symmetry_multiplicity
 _atom_site_fract_x
 _atom_site_fract_y
 _atom_site_fract_z
 _atom_site_occupancy
  H  H0  1  0.20126611  0.45944166  0.03359374  1
  H  H1  1  0.79873389  0.95944166  0.96640626  1
  H  H2  1  0.79873389  0.45944166  0.53359374  1
  H  H3  1  0.20126611  0.95944166  0.46640626  1
  N  N4  1  0.12571752  0.52955379  0.99924288  1
  N  N5  1  0.87428248  0.02955379  0.00075712  1
  N  N6  1  0.87428248  0.52955379  0.49924288  1
  N  N7  1  0.12571752  0.02955379  0.50075712  1
  S  S8  1  0.20385823  0.11143971  0.59935026  1
  S  S9  1  0.79614177  0.61143971  0.40064974  1
  S  S10  1  0.79614177  0.11143971  0.09935026  1
  S  S11  1  0.20385823  0.61143971  0.90064974  1
  S  S12  1  0.33535102  0.29251418  0.55934933  1
  S  S13  1  0.66464898  0.79251418  0.44065067  1
  S  S14  1  0.66464898  0.29251418  0.05934933  1
  S  S15  1  0.33535102  0.79251418  0.94065067  1
  S  S16  1  0.54425472  0.21410244  0.50063235  1
  S  S17  1  0.45574528  0.71410244  0.49936765  1
  S  S18  1  0.45574528  0.21410244  0.00063235  1
  S  S19  1  0.54425472  0.71410244  0.99936765  1
  S  S20  1  0.54157236  0.25243012  0.35274461  1
  S  S21  1  0.45842764  0.75243012  0.64725539  1
  S  S22  1  0.45842764  0.25243012  0.85274461  1
  S  S23  1  0.54157236  0.75243012  0.14725539  1
  S  S24  1  0.40607351  0.08967587  0.28872784  1
  S  S25  1  0.59392649  0.58967587  0.71127216  1
  S  S26  1  0.59392649  0.08967587  0.78872784  1
  S  S27  1  0.40607351  0.58967587  0.21127216  1
  S  S28  1  0.20379150  0.18601268  0.23424852  1
  S  S29  1  0.79620850  0.68601268  0.76575148  1
  S  S30  1  0.79620850  0.18601268  0.73424852  1
  S  S31  1  0.20379150  0.68601268  0.26575148  1
  S  S32  1  0.07494301  0.26671409  0.34968449  1
  S  S33  1  0.92505699  0.76671409  0.65031551  1
  S  S34  1  0.92505699  0.26671409  0.84968449  1
  S  S35  1  0.07494301  0.76671409  0.15031551  1
  S  S36  1  0.98111177  0.09531546  0.42847175  1
  S  S37  1  0.01888823  0.59531546  0.57152825  1
  S  S38  1  0.01888823  0.09531546  0.92847175  1
  S  S39  1  0.98111177  0.59531546  0.07152825  1
