# generated using pymatgen
data_NaZrPCO7
_symmetry_space_group_name_H-M   'P 1'
_cell_length_a   9.35326101
_cell_length_b   6.68371084
_cell_length_c   5.79375506
_cell_angle_alpha   90.00000000
_cell_angle_beta   87.59197348
_cell_angle_gamma   90.00000000
_symmetry_Int_Tables_number   1
_chemical_formula_structural   NaZrPCO7
_chemical_formula_sum   'Na2 Zr2 P2 C2 O14'
_cell_volume   361.87382069
_cell_formula_units_Z   2
loop_
 _symmetry_equiv_pos_site_id
 _symmetry_equiv_pos_as_xyz
  1  'x, y, z'
loop_
 _atom_site_type_symbol
 _atom_site_label
 _atom_site_symmetry_multiplicity
 _atom_site_fract_x
 _atom_site_fract_y
 _atom_site_fract_z
 _atom_site_occupancy
  Na  Na0  1  0.18707094  0.51585101  0.22970029  1
  Na  Na1  1  0.81292906  0.01585101  0.77029971  1
  Zr  Zr2  1  0.34701119  0.76495861  0.79037846  1
  Zr  Zr3  1  0.65298881  0.26495861  0.20962154  1
  P  P4  1  0.45010237  0.25921771  0.72930814  1
  P  P5  1  0.54989763  0.75921771  0.27069186  1
  C  C6  1  0.07490001  0.73017227  0.72161490  1
  C  C7  1  0.92509999  0.23017227  0.27838510  1
  O  O8  1  0.05354116  0.24080908  0.31362964  1
  O  O9  1  0.13196241  0.73727313  0.93057743  1
  O  O10  1  0.17945861  0.71803504  0.55540027  1
  O  O11  1  0.35497730  0.07449619  0.78333860  1
  O  O12  1  0.36753291  0.44781156  0.80702876  1
  O  O13  1  0.40963796  0.74156625  0.13688928  1
  O  O14  1  0.48949554  0.26765914  0.46666551  1
  O  O15  1  0.51050446  0.76765914  0.53333449  1
  O  O16  1  0.59036204  0.24156625  0.86311072  1
  O  O17  1  0.63246709  0.94781156  0.19297124  1
  O  O18  1  0.64502270  0.57449619  0.21666140  1
  O  O19  1  0.82054139  0.21803504  0.44459973  1
  O  O20  1  0.86803759  0.23727313  0.06942257  1
  O  O21  1  0.94645884  0.74080908  0.68637036  1
