# generated using pymatgen
data_Ti3N2O3
_symmetry_space_group_name_H-M   'P 1'
_cell_length_a   3.77772285
_cell_length_b   5.31123401
_cell_length_c   10.05308389
_cell_angle_alpha   90.00000000
_cell_angle_beta   90.00000000
_cell_angle_gamma   69.16762471
_symmetry_Int_Tables_number   1
_chemical_formula_structural   Ti3N2O3
_chemical_formula_sum   'Ti6 N4 O6'
_cell_volume   188.52205742
_cell_formula_units_Z   2
loop_
 _symmetry_equiv_pos_site_id
 _symmetry_equiv_pos_as_xyz
  1  'x, y, z'
loop_
 _atom_site_type_symbol
 _atom_site_label
 _atom_site_symmetry_multiplicity
 _atom_site_fract_x
 _atom_site_fract_y
 _atom_site_fract_z
 _atom_site_occupancy
  Ti  Ti0  1  0.13497909  0.73004082  0.94251371  1
  Ti  Ti1  1  0.13460936  0.73078227  0.54945028  1
  Ti  Ti2  1  0.19501380  0.60997340  0.24630855  1
  Ti  Ti3  1  0.80498620  0.39002660  0.74630855  1
  Ti  Ti4  1  0.86539064  0.26921773  0.04945028  1
  Ti  Ti5  1  0.86502091  0.26995918  0.44251371  1
  N  N6  1  0.04577536  0.90845029  0.38211972  1
  N  N7  1  0.69673738  0.60652424  0.57632423  1
  N  N8  1  0.30326262  0.39347576  0.07632423  1
  N  N9  1  0.95422464  0.09154971  0.88211972  1
  O  O10  1  0.04510785  0.90978529  0.11962567  1
  O  O11  1  0.68635599  0.62728802  0.92262490  1
  O  O12  1  0.75404105  0.49191790  0.26103295  1
  O  O13  1  0.24595895  0.50808210  0.76103295  1
  O  O14  1  0.31364401  0.37271198  0.42262490  1
  O  O15  1  0.95489215  0.09021471  0.61962567  1
