# generated using pymatgen
data_Li4Mn2OF7
_symmetry_space_group_name_H-M   'P 1'
_cell_length_a   5.97378407
_cell_length_b   5.99329912
_cell_length_c   6.23724236
_cell_angle_alpha   120.60026341
_cell_angle_beta   88.82544889
_cell_angle_gamma   61.39992298
_symmetry_Int_Tables_number   1
_chemical_formula_structural   Li4Mn2OF7
_chemical_formula_sum   'Li4 Mn2 O1 F7'
_cell_volume   158.11159990
_cell_formula_units_Z   1
loop_
 _symmetry_equiv_pos_site_id
 _symmetry_equiv_pos_as_xyz
  1  'x, y, z'
loop_
 _atom_site_type_symbol
 _atom_site_label
 _atom_site_symmetry_multiplicity
 _atom_site_fract_x
 _atom_site_fract_y
 _atom_site_fract_z
 _atom_site_occupancy
  Li  Li0  1  0.00400618  0.99247567  0.49463023  1
  Li  Li1  1  0.51381020  0.98142724  0.49343421  1
  Li  Li2  1  0.10650052  0.24934715  0.13743480  1
  Li  Li3  1  0.87548057  0.77061985  0.87466349  1
  Mn  Mn4  1  0.51031125  0.49977927  0.49083961  1
  Mn  Mn5  1  0.51296825  0.50019830  0.00752596  1
  O  O6  1  0.70891113  0.50569970  0.27137364  1
  F  F7  1  0.74430145  0.00799284  0.72850855  1
  F  F8  1  0.73614467  0.02724834  0.27669715  1
  F  F9  1  0.28388309  0.49522079  0.73298434  1
  F  F10  1  0.75470876  0.49018414  0.73884106  1
  F  F11  1  0.24019703  0.51361899  0.26164673  1
  F  F12  1  0.25953112  0.97210012  0.72649210  1
  F  F13  1  0.24924776  0.99408762  0.26492713  1
