# generated using pymatgen
data_Mn6O7F5
_symmetry_space_group_name_H-M   'P 1'
_cell_length_a   7.36255250
_cell_length_b   5.53594041
_cell_length_c   5.58062456
_cell_angle_alpha   71.59998178
_cell_angle_beta   73.48855049
_cell_angle_gamma   72.06132892
_symmetry_Int_Tables_number   1
_chemical_formula_structural   Mn6O7F5
_chemical_formula_sum   'Mn6 O7 F5'
_cell_volume   200.88477795
_cell_formula_units_Z   1
loop_
 _symmetry_equiv_pos_site_id
 _symmetry_equiv_pos_as_xyz
  1  'x, y, z'
loop_
 _atom_site_type_symbol
 _atom_site_label
 _atom_site_symmetry_multiplicity
 _atom_site_fract_x
 _atom_site_fract_y
 _atom_site_fract_z
 _atom_site_occupancy
  Mn  Mn0  1  0.83795008  0.68607857  0.69349414  1
  Mn  Mn1  1  0.67411467  0.33863899  0.33757465  1
  Mn  Mn2  1  0.31168813  0.67943904  0.61082224  1
  Mn  Mn3  1  0.16438913  0.32918014  0.33307813  1
  Mn  Mn4  1  0.50271712  0.99066892  0.98322403  1
  Mn  Mn5  1  0.99897537  0.97598482  0.04466244  1
  O  O6  1  0.67217275  0.02522604  0.64365777  1
  O  O7  1  0.95841443  0.22614150  0.25006452  1
  O  O8  1  0.02594030  0.77118512  0.79703514  1
  O  O9  1  0.38123637  0.43041431  0.41296674  1
  O  O10  1  0.32841450  0.97328282  0.32164170  1
  O  O11  1  0.67316986  0.64506086  0.03053219  1
  O  O12  1  0.00296902  0.68306906  0.34469081  1
  F  F13  1  0.33901580  0.36565304  0.92272888  1
  F  F14  1  0.30576700  0.89241617  0.84996785  1
  F  F15  1  0.64211734  0.57325572  0.57728712  1
  F  F16  1  0.69068633  0.11265825  0.10562852  1
  F  F17  1  0.99026081  0.30164463  0.74094413  1
