# generated using pymatgen
data_Li2MnSi3O8
_symmetry_space_group_name_H-M   'P 1'
_cell_length_a   6.32516134
_cell_length_b   6.35862685
_cell_length_c   5.14103682
_cell_angle_alpha   71.69597889
_cell_angle_beta   105.26986608
_cell_angle_gamma   103.24341813
_symmetry_Int_Tables_number   1
_chemical_formula_structural   Li2MnSi3O8
_chemical_formula_sum   'Li2 Mn1 Si3 O8'
_cell_volume   186.94269059
_cell_formula_units_Z   1
loop_
 _symmetry_equiv_pos_site_id
 _symmetry_equiv_pos_as_xyz
  1  'x, y, z'
loop_
 _atom_site_type_symbol
 _atom_site_label
 _atom_site_symmetry_multiplicity
 _atom_site_fract_x
 _atom_site_fract_y
 _atom_site_fract_z
 _atom_site_occupancy
  Li  Li0  1  0.86147021  0.63861824  0.28349669  1
  Li  Li1  1  0.11850150  0.30006342  0.78053081  1
  Mn  Mn2  1  0.62454430  0.29011691  0.65317806  1
  Si  Si3  1  0.82058915  0.11564559  0.30204305  1
  Si  Si4  1  0.40069393  0.76174992  0.32416633  1
  Si  Si5  1  0.19066141  0.88416316  0.71559219  1
  O  O6  1  0.87677410  0.18919508  0.99584508  1
  O  O7  1  0.18141953  0.76028080  0.05276882  1
  O  O8  1  0.88037656  0.32145096  0.44283411  1
  O  O9  1  0.55128243  0.58267092  0.35630879  1
  O  O10  1  0.31478892  0.13518094  0.68907984  1
  O  O11  1  0.54856109  0.01633608  0.28615126  1
  O  O12  1  0.93905709  0.89065437  0.51320910  1
  O  O13  1  0.28987880  0.71247560  0.60479486  1
