# generated using pymatgen
data_Sr6CoC2N7
_symmetry_space_group_name_H-M   'P 1'
_cell_length_a   9.89322869
_cell_length_b   14.69099311
_cell_length_c   3.86988082
_cell_angle_alpha   90.00000000
_cell_angle_beta   90.00000000
_cell_angle_gamma   90.00000000
_symmetry_Int_Tables_number   1
_chemical_formula_structural   Sr6CoC2N7
_chemical_formula_sum   'Sr12 Co2 C4 N14'
_cell_volume   562.45372021
_cell_formula_units_Z   2
loop_
 _symmetry_equiv_pos_site_id
 _symmetry_equiv_pos_as_xyz
  1  'x, y, z'
loop_
 _atom_site_type_symbol
 _atom_site_label
 _atom_site_symmetry_multiplicity
 _atom_site_fract_x
 _atom_site_fract_y
 _atom_site_fract_z
 _atom_site_occupancy
  Sr  Sr0  1  0.42845272  0.88968399  0.06013220  1
  Sr  Sr1  1  0.57154728  0.11031601  0.06013220  1
  Sr  Sr2  1  0.92845272  0.61031601  0.93986780  1
  Sr  Sr3  1  0.07154728  0.38968399  0.93986780  1
  Sr  Sr4  1  0.09497999  0.83603096  0.49383672  1
  Sr  Sr5  1  0.90502001  0.16396904  0.49383672  1
  Sr  Sr6  1  0.59497999  0.66396904  0.50616328  1
  Sr  Sr7  1  0.40502001  0.33603096  0.50616328  1
  Sr  Sr8  1  0.24631133  0.55808736  0.44084360  1
  Sr  Sr9  1  0.75368867  0.44191264  0.44084360  1
  Sr  Sr10  1  0.74631133  0.94191264  0.55915640  1
  Sr  Sr11  1  0.25368867  0.05808736  0.55915640  1
  Co  Co12  1  0.50000000  0.50000000  0.97660863  1
  Co  Co13  1  0.00000000  0.00000000  0.02339137  1
  C  C14  1  0.27213884  0.72049186  0.81633279  1
  C  C15  1  0.72786116  0.27950814  0.81633279  1
  C  C16  1  0.77213884  0.77950814  0.18366721  1
  C  C17  1  0.22786116  0.22049186  0.18366721  1
  N  N18  1  0.50000000  0.00000000  0.56417183  1
  N  N19  1  0.00000000  0.50000000  0.43582817  1
  N  N20  1  0.16663453  0.94647799  0.02864752  1
  N  N21  1  0.83336547  0.05352201  0.02864752  1
  N  N22  1  0.66663453  0.55352201  0.97135248  1
  N  N23  1  0.33336547  0.44647799  0.97135248  1
  N  N24  1  0.16882514  0.69372281  0.96956364  1
  N  N25  1  0.83117486  0.30627719  0.96956364  1
  N  N26  1  0.66882514  0.80627719  0.03043636  1
  N  N27  1  0.33117486  0.19372281  0.03043636  1
  N  N28  1  0.36630624  0.74875549  0.63477948  1
  N  N29  1  0.63369376  0.25124451  0.63477948  1
  N  N30  1  0.86630624  0.75124451  0.36522052  1
  N  N31  1  0.13369376  0.24875549  0.36522052  1
