# generated using pymatgen
data_LiSiPCO7
_symmetry_space_group_name_H-M   'P 1'
_cell_length_a   8.43761972
_cell_length_b   6.03012945
_cell_length_c   4.96868057
_cell_angle_alpha   90.00000000
_cell_angle_beta   85.27977476
_cell_angle_gamma   90.00000000
_symmetry_Int_Tables_number   1
_chemical_formula_structural   LiSiPCO7
_chemical_formula_sum   'Li2 Si2 P2 C2 O14'
_cell_volume   251.94874768
_cell_formula_units_Z   2
loop_
 _symmetry_equiv_pos_site_id
 _symmetry_equiv_pos_as_xyz
  1  'x, y, z'
loop_
 _atom_site_type_symbol
 _atom_site_label
 _atom_site_symmetry_multiplicity
 _atom_site_fract_x
 _atom_site_fract_y
 _atom_site_fract_z
 _atom_site_occupancy
  Li  Li0  1  0.19453615  0.52176564  0.23190153  1
  Li  Li1  1  0.80546385  0.02176564  0.76809847  1
  Si  Si2  1  0.33392056  0.75189759  0.78866471  1
  Si  Si3  1  0.66607944  0.25189759  0.21133529  1
  P  P4  1  0.43286054  0.24573848  0.73604974  1
  P  P5  1  0.56713946  0.74573848  0.26395026  1
  C  C6  1  0.06894296  0.74845646  0.72662704  1
  C  C7  1  0.93105704  0.24845646  0.27337296  1
  O  O8  1  0.07277695  0.26533457  0.31326852  1
  O  O9  1  0.13313253  0.74685860  0.96367628  1
  O  O10  1  0.19102726  0.73649038  0.53483681  1
  O  O11  1  0.32720961  0.04322095  0.79709742  1
  O  O12  1  0.32717768  0.44808175  0.80785818  1
  O  O13  1  0.41923184  0.74161994  0.09959578  1
  O  O14  1  0.49288585  0.24838663  0.43109784  1
  O  O15  1  0.50711415  0.74838663  0.56890216  1
  O  O16  1  0.58076816  0.24161994  0.90040322  1
  O  O17  1  0.67282232  0.94808175  0.19214182  1
  O  O18  1  0.67279039  0.54322095  0.20290258  1
  O  O19  1  0.80897274  0.23649038  0.46516319  1
  O  O20  1  0.86686747  0.24685860  0.03632372  1
  O  O21  1  0.92722305  0.76533457  0.68673148  1
