# generated using pymatgen
data_BaTeO3
_symmetry_space_group_name_H-M   'P 1'
_cell_length_a   4.65475304
_cell_length_b   6.07456640
_cell_length_c   7.25689031
_cell_angle_alpha   90.00000000
_cell_angle_beta   106.88681495
_cell_angle_gamma   90.00000000
_symmetry_Int_Tables_number   1
_chemical_formula_structural   BaTeO3
_chemical_formula_sum   'Ba2 Te2 O6'
_cell_volume   196.34514642
_cell_formula_units_Z   2
loop_
 _symmetry_equiv_pos_site_id
 _symmetry_equiv_pos_as_xyz
  1  'x, y, z'
loop_
 _atom_site_type_symbol
 _atom_site_label
 _atom_site_symmetry_multiplicity
 _atom_site_fract_x
 _atom_site_fract_y
 _atom_site_fract_z
 _atom_site_occupancy
  O  O0  1  0.17354504  0.48585911  0.32609382  1
  O  O1  1  0.82645496  0.98585911  0.67390618  1
  O  O2  1  0.82645496  0.51414089  0.67390618  1
  O  O3  1  0.17354504  0.01414089  0.32609382  1
  O  O4  1  0.64704092  0.25000000  0.10206148  1
  O  O5  1  0.35295908  0.75000000  0.89793852  1
  Te  Te6  1  0.93051211  0.75000000  0.85223287  1
  Te  Te7  1  0.06948789  0.25000000  0.14776713  1
  Ba  Ba8  1  0.66013123  0.75000000  0.31359828  1
  Ba  Ba9  1  0.33986877  0.25000000  0.68640172  1
