# generated using pymatgen
data_Sc2TiO5
_symmetry_space_group_name_H-M   'P 1'
_cell_length_a   3.87999397
_cell_length_b   5.47233473
_cell_length_c   10.35056243
_cell_angle_alpha   90.00000000
_cell_angle_beta   90.00000000
_cell_angle_gamma   110.76341756
_symmetry_Int_Tables_number   1
_chemical_formula_structural   Sc2TiO5
_chemical_formula_sum   'Sc4 Ti2 O10'
_cell_volume   205.49606888
_cell_formula_units_Z   2
loop_
 _symmetry_equiv_pos_site_id
 _symmetry_equiv_pos_as_xyz
  1  'x, y, z'
loop_
 _atom_site_type_symbol
 _atom_site_label
 _atom_site_symmetry_multiplicity
 _atom_site_fract_x
 _atom_site_fract_y
 _atom_site_fract_z
 _atom_site_occupancy
  Sc  Sc0  1  0.36300705  0.72601311  0.43661218  1
  Sc  Sc1  1  0.30590745  0.61181489  0.74960308  1
  Sc  Sc2  1  0.69409255  0.38818511  0.24960308  1
  Sc  Sc3  1  0.63699295  0.27398689  0.93661218  1
  Ti  Ti4  1  0.36640531  0.73281063  0.05911777  1
  Ti  Ti5  1  0.63359469  0.26718937  0.55911777  1
  O  O6  1  0.44603655  0.89207310  0.89157508  1
  O  O7  1  0.18604354  0.37208608  0.57027285  1
  O  O8  1  0.27021893  0.54043685  0.24200933  1
  O  O9  1  0.19878077  0.39756054  0.93184160  1
  O  O10  1  0.46357431  0.92714762  0.61896910  1
  O  O11  1  0.72978107  0.45956315  0.74200933  1
  O  O12  1  0.81395646  0.62791392  0.07027285  1
  O  O13  1  0.55396345  0.10792690  0.39157508  1
  O  O14  1  0.53642569  0.07285238  0.11896910  1
  O  O15  1  0.80121923  0.60243946  0.43184160  1
