# generated using pymatgen
data_LiCu(PO3)2
_symmetry_space_group_name_H-M   'P 1'
_cell_length_a   5.34203547
_cell_length_b   5.07351273
_cell_length_c   5.64798584
_cell_angle_alpha   89.99859723
_cell_angle_beta   89.99038661
_cell_angle_gamma   118.36278823
_symmetry_Int_Tables_number   1
_chemical_formula_structural   LiCu(PO3)2
_chemical_formula_sum   'Li1 Cu1 P2 O6'
_cell_volume   134.70096459
_cell_formula_units_Z   1
loop_
 _symmetry_equiv_pos_site_id
 _symmetry_equiv_pos_as_xyz
  1  'x, y, z'
loop_
 _atom_site_type_symbol
 _atom_site_label
 _atom_site_symmetry_multiplicity
 _atom_site_fract_x
 _atom_site_fract_y
 _atom_site_fract_z
 _atom_site_occupancy
  Li  Li0  1  0.00002199  0.00001028  0.66668451  1
  Cu  Cu1  1  0.00003903  0.50000442  0.66638198  1
  P  P2  1  0.50003021  0.50000597  0.33692561  1
  P  P3  1  0.50022490  0.00009970  0.99640988  1
  O  O4  1  0.22473515  0.88495327  0.86209425  1
  O  O5  1  0.22515319  0.33996876  0.47148208  1
  O  O6  1  0.47182155  0.73583690  0.16663457  1
  O  O7  1  0.52814043  0.26415613  0.16660795  1
  O  O8  1  0.77508112  0.66010085  0.47136058  1
  O  O9  1  0.77486143  0.11486372  0.86208458  1
