# generated using pymatgen
data_Ag3AuS2
_symmetry_space_group_name_H-M   'P 1'
_cell_length_a   5.84495941
_cell_length_b   4.73718404
_cell_length_c   4.87211159
_cell_angle_alpha   80.95959030
_cell_angle_beta   91.46758300
_cell_angle_gamma   95.00607085
_symmetry_Int_Tables_number   1
_chemical_formula_structural   Ag3AuS2
_chemical_formula_sum   'Ag3 Au1 S2'
_cell_volume   132.70849141
_cell_formula_units_Z   1
loop_
 _symmetry_equiv_pos_site_id
 _symmetry_equiv_pos_as_xyz
  1  'x, y, z'
loop_
 _atom_site_type_symbol
 _atom_site_label
 _atom_site_symmetry_multiplicity
 _atom_site_fract_x
 _atom_site_fract_y
 _atom_site_fract_z
 _atom_site_occupancy
  Ag  Ag0  1  0.04353692  0.18364926  0.45549207  1
  Ag  Ag1  1  0.26845654  0.56241239  0.01485662  1
  Ag  Ag2  1  0.60253384  0.98828315  0.71605334  1
  Au  Au3  1  0.74063473  0.69785036  0.26595792  1
  S  S4  1  0.02358169  0.98473595  0.98882674  1
  S  S5  1  0.44625629  0.45806889  0.55881331  1
