# generated using pymatgen
data_K3SnIrCl8
_symmetry_space_group_name_H-M   'P 1'
_cell_length_a   8.04873293
_cell_length_b   9.73492023
_cell_length_c   9.68592083
_cell_angle_alpha   90.00000000
_cell_angle_beta   90.00000000
_cell_angle_gamma   90.00000000
_symmetry_Int_Tables_number   1
_chemical_formula_structural   K3SnIrCl8
_chemical_formula_sum   'K6 Sn2 Ir2 Cl16'
_cell_volume   758.92844226
_cell_formula_units_Z   2
loop_
 _symmetry_equiv_pos_site_id
 _symmetry_equiv_pos_as_xyz
  1  'x, y, z'
loop_
 _atom_site_type_symbol
 _atom_site_label
 _atom_site_symmetry_multiplicity
 _atom_site_fract_x
 _atom_site_fract_y
 _atom_site_fract_z
 _atom_site_occupancy
  K  K0  1  0.06518046  0.62664623  0.75898072  1
  K  K1  1  0.56518046  0.37335377  0.74101928  1
  K  K2  1  0.06518046  0.62664623  0.24101928  1
  K  K3  1  0.99651934  0.13777594  0.00000000  1
  K  K4  1  0.49651934  0.86222406  0.50000000  1
  K  K5  1  0.56518046  0.37335377  0.25898072  1
  Sn  Sn6  1  0.47951547  0.90395247  0.00000000  1
  Sn  Sn7  1  0.97951547  0.09604753  0.50000000  1
  Ir  Ir8  1  0.15853323  0.31049492  0.50000000  1
  Ir  Ir9  1  0.65853323  0.68950508  0.00000000  1
  Cl  Cl10  1  0.41383409  0.18843680  0.50000000  1
  Cl  Cl11  1  0.78435565  0.06691257  0.31220970  1
  Cl  Cl12  1  0.28435565  0.93308743  0.81220970  1
  Cl  Cl13  1  0.81734974  0.47409920  0.00000000  1
  Cl  Cl14  1  0.31734974  0.52590080  0.50000000  1
  Cl  Cl15  1  0.16362054  0.31379440  0.25364846  1
  Cl  Cl16  1  0.91383409  0.81156320  0.00000000  1
  Cl  Cl17  1  0.90298812  0.43740277  0.50000000  1
  Cl  Cl18  1  0.28435565  0.93308743  0.18779030  1
  Cl  Cl19  1  0.57374670  0.14318233  0.00000000  1
  Cl  Cl20  1  0.78435565  0.06691257  0.68779030  1
  Cl  Cl21  1  0.40298812  0.56259723  0.00000000  1
  Cl  Cl22  1  0.07374670  0.85681767  0.50000000  1
  Cl  Cl23  1  0.16362054  0.31379440  0.74635154  1
  Cl  Cl24  1  0.66362054  0.68620560  0.24635154  1
  Cl  Cl25  1  0.66362054  0.68620560  0.75364846  1
