# generated using pymatgen
data_TeO2
_symmetry_space_group_name_H-M   'P 1'
_cell_length_a   4.47124676
_cell_length_b   5.10885320
_cell_length_c   8.79800300
_cell_angle_alpha   90.00000000
_cell_angle_beta   90.00000000
_cell_angle_gamma   90.00000000
_symmetry_Int_Tables_number   1
_chemical_formula_structural   TeO2
_chemical_formula_sum   'Te4 O8'
_cell_volume   200.97228384
_cell_formula_units_Z   4
loop_
 _symmetry_equiv_pos_site_id
 _symmetry_equiv_pos_as_xyz
  1  'x, y, z'
loop_
 _atom_site_type_symbol
 _atom_site_label
 _atom_site_symmetry_multiplicity
 _atom_site_fract_x
 _atom_site_fract_y
 _atom_site_fract_z
 _atom_site_occupancy
  O  O0  1  0.78055042  0.14144270  0.53988658  1
  O  O1  1  0.28055042  0.35855730  0.46011342  1
  O  O2  1  0.21944958  0.64144270  0.96011342  1
  O  O3  1  0.71944958  0.85855730  0.03988658  1
  O  O4  1  0.16192092  0.75902246  0.28162106  1
  O  O5  1  0.66192092  0.74097754  0.71837894  1
  O  O6  1  0.83807908  0.25902246  0.21837894  1
  O  O7  1  0.33807908  0.24097754  0.78162106  1
  Te  Te8  1  0.38207968  0.04133034  0.60328321  1
  Te  Te9  1  0.88207968  0.45866966  0.39671679  1
  Te  Te10  1  0.61792032  0.54133034  0.89671679  1
  Te  Te11  1  0.11792032  0.95866966  0.10328321  1
