# generated using pymatgen
data_Ba(FeO2)2
_symmetry_space_group_name_H-M   'P 1'
_cell_length_a   5.50661514
_cell_length_b   8.61790662
_cell_length_c   10.63317929
_cell_angle_alpha   113.90595389
_cell_angle_beta   90.00000000
_cell_angle_gamma   90.00000000
_symmetry_Int_Tables_number   1
_chemical_formula_structural   Ba(FeO2)2
_chemical_formula_sum   'Ba4 Fe8 O16'
_cell_volume   461.31384748
_cell_formula_units_Z   4
loop_
 _symmetry_equiv_pos_site_id
 _symmetry_equiv_pos_as_xyz
  1  'x, y, z'
loop_
 _atom_site_type_symbol
 _atom_site_label
 _atom_site_symmetry_multiplicity
 _atom_site_fract_x
 _atom_site_fract_y
 _atom_site_fract_z
 _atom_site_occupancy
  O  O0  1  0.14173955  0.71730545  0.43461091  1
  O  O1  1  0.64173955  0.28269455  0.56538909  1
  O  O2  1  0.25607485  0.55088441  0.10176882  1
  O  O3  1  0.75607485  0.44911559  0.89823118  1
  O  O4  1  0.09431898  0.50342268  0.58220749  1
  O  O5  1  0.59431898  0.49657732  0.41779251  1
  O  O6  1  0.09431898  0.07878481  0.58220749  1
  O  O7  1  0.59431898  0.92121519  0.41779251  1
  O  O8  1  0.62173871  0.66823157  0.74692543  1
  O  O9  1  0.12173871  0.33176843  0.25307457  1
  O  O10  1  0.62173871  0.07869386  0.74692543  1
  O  O11  1  0.12173871  0.92130614  0.25307457  1
  O  O12  1  0.60245119  0.81642013  0.07678125  1
  O  O13  1  0.10245119  0.18357987  0.92321875  1
  O  O14  1  0.60245119  0.26036112  0.07678125  1
  O  O15  1  0.10245119  0.73963888  0.92321875  1
  Fe  Fe16  1  0.74738635  0.49855422  0.58022293  1
  Fe  Fe17  1  0.24738635  0.50144578  0.41977707  1
  Fe  Fe18  1  0.74738635  0.08166870  0.58022293  1
  Fe  Fe19  1  0.24738635  0.91833130  0.41977707  1
  Fe  Fe20  1  0.76853066  0.67592315  0.91211930  1
  Fe  Fe21  1  0.26853066  0.32407685  0.08788070  1
  Fe  Fe22  1  0.76853066  0.23619615  0.91211930  1
  Fe  Fe23  1  0.26853066  0.76380385  0.08788070  1
  Ba  Ba24  1  0.27558732  0.38008447  0.76016893  1
  Ba  Ba25  1  0.77558732  0.61991553  0.23983107  1
  Ba  Ba26  1  0.24274650  0.86982121  0.73964242  1
  Ba  Ba27  1  0.74274650  0.13017879  0.26035758  1
