# generated using pymatgen
data_Li4CO4
_symmetry_space_group_name_H-M   'P 1'
_cell_length_a   4.36996178
_cell_length_b   5.08557958
_cell_length_c   5.08557754
_cell_angle_alpha   79.36498833
_cell_angle_beta   64.55411009
_cell_angle_gamma   64.55410964
_symmetry_Int_Tables_number   1
_chemical_formula_structural   Li4CO4
_chemical_formula_sum   'Li4 C1 O4'
_cell_volume   92.15643221
_cell_formula_units_Z   1
loop_
 _symmetry_equiv_pos_site_id
 _symmetry_equiv_pos_as_xyz
  1  'x, y, z'
loop_
 _atom_site_type_symbol
 _atom_site_label
 _atom_site_symmetry_multiplicity
 _atom_site_fract_x
 _atom_site_fract_y
 _atom_site_fract_z
 _atom_site_occupancy
  Li  Li0  1  0.03655101  0.99998305  0.65868066  1
  O  O1  1  0.81580451  0.75093614  -0.00001794  1
  O  O2  1  0.18419522  1.00001711  0.24906394  1
  C  C3  1  0.49999847  1.00000574  -0.00000507  1
  Li  Li4  1  0.30479037  0.65867952  1.00000642  1
  O  O5  1  0.43325404  1.00000089  0.75093499  1
  Li  Li6  1  0.96344943  0.34131947  0.00001806  1
  Li  Li7  1  0.69521019  -0.00000618  0.34132006  1
  O  O8  1  0.56674676  0.24906426  -0.00000113  1
