# generated using pymatgen
data_Li7CuO4
_symmetry_space_group_name_H-M   'P 1'
_cell_length_a   4.73102952
_cell_length_b   6.68673705
_cell_length_c   6.68673943
_cell_angle_alpha   89.99994516
_cell_angle_beta   90.00022732
_cell_angle_gamma   89.99986895
_symmetry_Int_Tables_number   1
_chemical_formula_structural   Li7CuO4
_chemical_formula_sum   'Li14 Cu2 O8'
_cell_volume   211.53600740
_cell_formula_units_Z   2
loop_
 _symmetry_equiv_pos_site_id
 _symmetry_equiv_pos_as_xyz
  1  'x, y, z'
loop_
 _atom_site_type_symbol
 _atom_site_label
 _atom_site_symmetry_multiplicity
 _atom_site_fract_x
 _atom_site_fract_y
 _atom_site_fract_z
 _atom_site_occupancy
  Li  Li0  1  0.74991866  0.50134371  0.99867355  1
  Li  Li1  1  0.74993592  0.99867291  0.99868039  1
  Li  Li2  1  0.25998612  0.24999917  0.75000394  1
  Li  Li3  1  0.75017085  0.75000606  0.74998982  1
  Li  Li4  1  0.75998890  0.24999797  0.74999639  1
  Li  Li5  1  0.74992339  0.50133503  0.50130668  1
  Li  Li6  1  0.74991955  0.99868096  0.50130317  1
  Li  Li7  1  0.24991727  0.00132990  0.49865667  1
  Li  Li8  1  0.24992590  0.49868611  0.49866659  1
  Li  Li9  1  0.24006188  0.75001003  0.24999362  1
  Li  Li10  1  0.25015683  0.25001513  0.24999579  1
  Li  Li11  1  0.74005939  0.75001216  0.24999267  1
  Li  Li12  1  0.24993752  0.00131911  0.00132993  1
  Li  Li13  1  0.24992111  0.49870256  0.00132220  1
  Cu  Cu14  1  0.25019965  0.75000948  0.74995952  1
  Cu  Cu15  1  0.75018745  0.24999990  0.24999257  1
  O  O16  1  0.01248446  0.25001108  0.99142190  1
  O  O17  1  0.51247178  0.49141364  0.74999495  1
  O  O18  1  0.51248615  0.00857883  0.74999579  1
  O  O19  1  0.01247439  0.25000751  0.50857854  1
  O  O20  1  0.98752196  0.75001102  0.49142983  1
  O  O21  1  0.48752412  0.99145477  0.24998951  1
  O  O22  1  0.48752319  0.50857396  0.24999597  1
  O  O23  1  0.98752556  0.75001102  0.00854500  1
