# generated using pymatgen
data_PCl5
_symmetry_space_group_name_H-M   'P 1'
_cell_length_a   8.67712916
_cell_length_b   8.78962468
_cell_length_c   9.24075421
_cell_angle_alpha   118.45481727
_cell_angle_beta   90.00000000
_cell_angle_gamma   119.57751882
_symmetry_Int_Tables_number   1
_chemical_formula_structural   PCl5
_chemical_formula_sum   'P3 Cl15'
_cell_volume   512.76778010
_cell_formula_units_Z   3
loop_
 _symmetry_equiv_pos_site_id
 _symmetry_equiv_pos_as_xyz
  1  'x, y, z'
loop_
 _atom_site_type_symbol
 _atom_site_label
 _atom_site_symmetry_multiplicity
 _atom_site_fract_x
 _atom_site_fract_y
 _atom_site_fract_z
 _atom_site_occupancy
  P  P0  1  0.26014941  0.52029881  0.77619523  1
  P  P1  1  0.73985059  0.47970119  0.22380477  1
  P  P2  1  0.50000000  0.00000000  0.50000000  1
  Cl  Cl3  1  0.33871661  0.67743323  0.42579924  1
  Cl  Cl4  1  0.63951094  0.92635761  0.30847334  1
  Cl  Cl5  1  0.14822031  0.29644062  0.52883143  1
  Cl  Cl6  1  0.53330094  0.69442358  0.83300492  1
  Cl  Cl7  1  0.66128339  0.32256677  0.57420076  1
  Cl  Cl8  1  0.71315333  0.07364239  0.69152666  1
  Cl  Cl9  1  0.28684667  0.92635761  0.30847334  1
  Cl  Cl10  1  0.80483334  0.60966668  0.08932384  1
  Cl  Cl11  1  0.46669906  0.30557642  0.16699508  1
  Cl  Cl12  1  0.19516666  0.39033332  0.91067616  1
  Cl  Cl13  1  0.85177969  0.70355938  0.47116857  1
  Cl  Cl14  1  0.36048906  0.07364239  0.69152666  1
  Cl  Cl15  1  0.16112264  0.69442358  0.83300492  1
  Cl  Cl16  1  0.00000000  0.00000000  0.00000000  1
  Cl  Cl17  1  0.83887736  0.30557642  0.16699508  1
