# generated using pymatgen
data_H2O
_symmetry_space_group_name_H-M   'P 1'
_cell_length_a   6.69524203
_cell_length_b   6.69524203
_cell_length_c   6.74765883
_cell_angle_alpha   90.00000000
_cell_angle_beta   90.00000000
_cell_angle_gamma   90.00000000
_symmetry_Int_Tables_number   1
_chemical_formula_structural   H2O
_chemical_formula_sum   'H24 O12'
_cell_volume   302.47234851
_cell_formula_units_Z   12
loop_
 _symmetry_equiv_pos_site_id
 _symmetry_equiv_pos_as_xyz
  1  'x, y, z'
loop_
 _atom_site_type_symbol
 _atom_site_label
 _atom_site_symmetry_multiplicity
 _atom_site_fract_x
 _atom_site_fract_y
 _atom_site_fract_z
 _atom_site_occupancy
  H  H0  1  0.48459450  0.16387538  0.53566930  1
  H  H1  1  0.51540550  0.83612462  0.03566930  1
  H  H2  1  0.66387538  0.01540550  0.28566930  1
  H  H3  1  0.33612462  0.98459450  0.78566930  1
  H  H4  1  0.83612462  0.51540550  0.96433070  1
  H  H5  1  0.16387538  0.48459450  0.46433070  1
  H  H6  1  0.01540550  0.66387538  0.71433070  1
  H  H7  1  0.98459450  0.33612462  0.21433070  1
  H  H8  1  0.61731110  0.34248303  0.45698071  1
  H  H9  1  0.38268890  0.65751697  0.95698071  1
  H  H10  1  0.84248303  0.88268890  0.20698071  1
  H  H11  1  0.15751697  0.11731110  0.70698071  1
  H  H12  1  0.65751697  0.38268890  0.04301929  1
  H  H13  1  0.34248303  0.61731110  0.54301929  1
  H  H14  1  0.88268890  0.84248303  0.79301929  1
  H  H15  1  0.11731110  0.15751697  0.29301929  1
  H  H16  1  0.80173976  0.13373716  0.64176909  1
  H  H17  1  0.19826024  0.86626284  0.14176909  1
  H  H18  1  0.63373716  0.69826024  0.39176909  1
  H  H19  1  0.36626284  0.30173976  0.89176909  1
  H  H20  1  0.86626284  0.19826024  0.85823091  1
  H  H21  1  0.13373716  0.80173976  0.35823091  1
  H  H22  1  0.69826024  0.63373716  0.60823091  1
  H  H23  1  0.30173976  0.36626284  0.10823091  1
  O  O24  1  0.89826190  0.10173810  0.75000000  1
  O  O25  1  0.10173810  0.89826190  0.25000000  1
  O  O26  1  0.60173810  0.60173810  0.50000000  1
  O  O27  1  0.39826190  0.39826190  0.00000000  1
  O  O28  1  0.61213788  0.19474582  0.46510989  1
  O  O29  1  0.38786212  0.80525418  0.96510989  1
  O  O30  1  0.69474582  0.88786212  0.21510989  1
  O  O31  1  0.30525418  0.11213788  0.71510989  1
  O  O32  1  0.80525418  0.38786212  0.03489011  1
  O  O33  1  0.19474582  0.61213788  0.53489011  1
  O  O34  1  0.88786212  0.69474582  0.78489011  1
  O  O35  1  0.11213788  0.30525418  0.28489011  1
