# generated using pymatgen
data_BeF2
_symmetry_space_group_name_H-M   'P 1'
_cell_length_a   9.00768107
_cell_length_b   9.00768132
_cell_length_c   9.00768069
_cell_angle_alpha   93.96769848
_cell_angle_beta   93.96769855
_cell_angle_gamma   93.96769663
_symmetry_Int_Tables_number   1
_chemical_formula_structural   BeF2
_chemical_formula_sum   'Be12 F24'
_cell_volume   725.35627651
_cell_formula_units_Z   12
loop_
 _symmetry_equiv_pos_site_id
 _symmetry_equiv_pos_as_xyz
  1  'x, y, z'
loop_
 _atom_site_type_symbol
 _atom_site_label
 _atom_site_symmetry_multiplicity
 _atom_site_fract_x
 _atom_site_fract_y
 _atom_site_fract_z
 _atom_site_occupancy
  Be  Be0  1  0.12673897  0.66700451  0.89668248  1
  Be  Be1  1  0.33299549  0.87326103  0.10331752  1
  Be  Be2  1  0.89668248  0.12673897  0.66700451  1
  Be  Be3  1  0.33299549  0.10331752  0.87326103  1
  Be  Be4  1  0.66700451  0.12673897  0.89668248  1
  Be  Be5  1  0.10331752  0.33299549  0.87326103  1
  Be  Be6  1  0.66700451  0.89668248  0.12673897  1
  Be  Be7  1  0.87326103  0.10331752  0.33299549  1
  Be  Be8  1  0.89668248  0.66700451  0.12673897  1
  Be  Be9  1  0.87326103  0.33299549  0.10331752  1
  Be  Be10  1  0.12673897  0.89668248  0.66700451  1
  Be  Be11  1  0.10331752  0.87326103  0.33299549  1
  F  F12  1  0.01794066  0.01794066  0.31859682  1
  F  F13  1  0.75310579  0.75310579  0.11182991  1
  F  F14  1  0.85292828  0.50000000  0.14707172  1
  F  F15  1  0.73494852  1.00000000  0.26505148  1
  F  F16  1  0.14707172  0.85292828  0.50000000  1
  F  F17  1  0.26505148  0.00000000  0.73494852  1
  F  F18  1  0.24689421  0.24689421  0.88817009  1
  F  F19  1  0.68140318  0.98205934  0.98205934  1
  F  F20  1  0.24689421  0.88817009  0.24689421  1
  F  F21  1  0.85292828  0.14707172  0.50000000  1
  F  F22  1  0.98205934  0.98205934  0.68140318  1
  F  F23  1  0.50000000  0.14707172  0.85292828  1
  F  F24  1  1.00000000  0.73494852  0.26505148  1
  F  F25  1  0.26505148  0.73494852  1.00000000  1
  F  F26  1  0.88817009  0.24689421  0.24689421  1
  F  F27  1  0.31859682  0.01794066  0.01794066  1
  F  F28  1  0.73494852  0.26505148  0.00000000  1
  F  F29  1  0.75310579  0.11182991  0.75310579  1
  F  F30  1  0.00000000  0.26505148  0.73494852  1
  F  F31  1  0.50000000  0.85292828  0.14707172  1
  F  F32  1  0.01794066  0.31859682  0.01794066  1
  F  F33  1  0.11182991  0.75310579  0.75310579  1
  F  F34  1  0.98205934  0.68140318  0.98205934  1
  F  F35  1  0.14707172  0.50000000  0.85292828  1
