# generated using pymatgen
data_FeTeBr7
_symmetry_space_group_name_H-M   'P 1'
_cell_length_a   7.05362037
_cell_length_b   9.15016137
_cell_length_c   10.92580526
_cell_angle_alpha   85.03211171
_cell_angle_beta   76.79528030
_cell_angle_gamma   83.50943591
_symmetry_Int_Tables_number   1
_chemical_formula_structural   FeTeBr7
_chemical_formula_sum   'Fe2 Te2 Br14'
_cell_volume   680.77813361
_cell_formula_units_Z   2
loop_
 _symmetry_equiv_pos_site_id
 _symmetry_equiv_pos_as_xyz
  1  'x, y, z'
loop_
 _atom_site_type_symbol
 _atom_site_label
 _atom_site_symmetry_multiplicity
 _atom_site_fract_x
 _atom_site_fract_y
 _atom_site_fract_z
 _atom_site_occupancy
  Fe  Fe0  1  0.49741982  0.12463237  0.12300605  1
  Fe  Fe1  1  0.75893056  0.55730964  0.55388625  1
  Te  Te2  1  0.95497858  0.49889852  0.08680685  1
  Te  Te3  1  0.19684261  0.93328499  0.53890013  1
  Br  Br4  1  0.82922122  0.18363770  0.07060445  1
  Br  Br5  1  0.28953247  0.32985287  0.20895570  1
  Br  Br6  1  0.48362203  0.92105425  0.27706666  1
  Br  Br7  1  0.41724057  0.04805454  0.94727137  1
  Br  Br8  1  0.07582967  0.73720620  0.12613108  1
  Br  Br9  1  0.18403916  0.46593334  0.87518425  1
  Br  Br10  1  0.66723681  0.62002989  1.00199688  1
  Br  Br11  1  0.09059385  0.61313669  0.51166492  1
  Br  Br12  1  0.54770002  0.75856798  0.64634675  1
  Br  Br13  1  0.68011595  0.49865160  0.36440854  1
  Br  Br14  1  0.71834514  0.35578795  0.69614212  1
  Br  Br15  1  0.33255153  0.17056419  0.56390140  1
  Br  Br16  1  0.98684733  0.92337794  0.75997419  1
  Br  Br17  1  0.92935268  0.04331935  0.43025241  1
