# generated using pymatgen
data_K3SbO3
_symmetry_space_group_name_H-M   'P 1'
_cell_length_a   8.53006809
_cell_length_b   8.53006809
_cell_length_c   8.53006809
_cell_angle_alpha   90.00000000
_cell_angle_beta   90.00000000
_cell_angle_gamma   90.00000000
_symmetry_Int_Tables_number   1
_chemical_formula_structural   K3SbO3
_chemical_formula_sum   'K12 Sb4 O12'
_cell_volume   620.66533999
_cell_formula_units_Z   4
loop_
 _symmetry_equiv_pos_site_id
 _symmetry_equiv_pos_as_xyz
  1  'x, y, z'
loop_
 _atom_site_type_symbol
 _atom_site_label
 _atom_site_symmetry_multiplicity
 _atom_site_fract_x
 _atom_site_fract_y
 _atom_site_fract_z
 _atom_site_occupancy
  O  O0  1  0.49556952  0.78603502  0.94165298  1
  O  O1  1  0.99556952  0.71396498  0.05834702  1
  O  O2  1  0.50443048  0.28603502  0.55834702  1
  O  O3  1  0.71396498  0.05834702  0.99556952  1
  O  O4  1  0.78603502  0.94165298  0.49556952  1
  O  O5  1  0.94165298  0.49556952  0.78603502  1
  O  O6  1  0.28603502  0.55834702  0.50443048  1
  O  O7  1  0.21396498  0.44165298  0.00443048  1
  O  O8  1  0.44165298  0.00443048  0.21396498  1
  O  O9  1  0.00443048  0.21396498  0.44165298  1
  O  O10  1  0.55834702  0.50443048  0.28603502  1
  O  O11  1  0.05834702  0.99556952  0.71396498  1
  K  K12  1  0.01979446  0.01979446  0.01979446  1
  K  K13  1  0.48020554  0.98020554  0.51979446  1
  K  K14  1  0.51979446  0.48020554  0.98020554  1
  K  K15  1  0.98020554  0.51979446  0.48020554  1
  K  K16  1  0.21763633  0.71763633  0.78236367  1
  K  K17  1  0.28236367  0.28236367  0.28236367  1
  K  K18  1  0.21304222  0.28695778  0.71304222  1
  K  K19  1  0.28695778  0.71304222  0.21304222  1
  K  K20  1  0.71304222  0.21304222  0.28695778  1
  K  K21  1  0.78695778  0.78695778  0.78695778  1
  K  K22  1  0.71763633  0.78236367  0.21763633  1
  K  K23  1  0.78236367  0.21763633  0.71763633  1
  Sb  Sb24  1  0.48786339  0.01213661  0.98786339  1
  Sb  Sb25  1  0.01213661  0.98786339  0.48786339  1
  Sb  Sb26  1  0.98786339  0.48786339  0.01213661  1
  Sb  Sb27  1  0.51213661  0.51213661  0.51213661  1
