# generated using pymatgen
data_KZnPO4
_symmetry_space_group_name_H-M   'P 1'
_cell_length_a   5.35709793
_cell_length_b   8.77390704
_cell_length_c   9.17721453
_cell_angle_alpha   90.00000000
_cell_angle_beta   90.00000000
_cell_angle_gamma   90.00000000
_symmetry_Int_Tables_number   1
_chemical_formula_structural   KZnPO4
_chemical_formula_sum   'K4 Zn4 P4 O16'
_cell_volume   431.35367089
_cell_formula_units_Z   4
loop_
 _symmetry_equiv_pos_site_id
 _symmetry_equiv_pos_as_xyz
  1  'x, y, z'
loop_
 _atom_site_type_symbol
 _atom_site_label
 _atom_site_symmetry_multiplicity
 _atom_site_fract_x
 _atom_site_fract_y
 _atom_site_fract_z
 _atom_site_occupancy
  O  O0  1  0.86596302  0.24605870  0.06154053  1
  O  O1  1  0.36596302  0.75394130  0.93845947  1
  O  O2  1  0.36596302  0.25394130  0.56154053  1
  O  O3  1  0.86596302  0.74605870  0.43845947  1
  O  O4  1  0.54328069  0.53519550  0.09143897  1
  O  O5  1  0.04328069  0.46480450  0.90856103  1
  O  O6  1  0.04328069  0.96480450  0.59143897  1
  O  O7  1  0.54328069  0.03519550  0.40856103  1
  O  O8  1  0.39464395  0.77759205  0.21207935  1
  O  O9  1  0.89464395  0.22240795  0.78792065  1
  O  O10  1  0.89464395  0.72240795  0.71207935  1
  O  O11  1  0.39464395  0.27759205  0.28792065  1
  O  O12  1  0.29068399  0.72200669  0.55550459  1
  O  O13  1  0.79068399  0.27799331  0.44449541  1
  O  O14  1  0.79068399  0.77799331  0.05550459  1
  O  O15  1  0.29068399  0.22200669  0.94449541  1
  P  P16  1  0.52331955  0.70908574  0.07526907  1
  P  P17  1  0.02331955  0.29091426  0.92473093  1
  P  P18  1  0.02331955  0.79091426  0.57526907  1
  P  P19  1  0.52331955  0.20908574  0.42473093  1
  K  K20  1  0.52676432  0.99708544  0.77587042  1
  K  K21  1  0.52676432  0.49708544  0.72412958  1
  K  K22  1  0.02676432  0.00291456  0.22412958  1
  K  K23  1  0.02676432  0.50291456  0.27587042  1
  Zn  Zn24  1  0.51974448  0.31175130  0.08933266  1
  Zn  Zn25  1  0.01974448  0.18824870  0.58933266  1
  Zn  Zn26  1  0.51974448  0.81175130  0.41066734  1
  Zn  Zn27  1  0.01974448  0.68824870  0.91066734  1
