# generated using pymatgen
data_LaTaN2O
_symmetry_space_group_name_H-M   'P 1'
_cell_length_a   5.67029202
_cell_length_b   5.67031115
_cell_length_c   5.73464881
_cell_angle_alpha   60.99883332
_cell_angle_beta   60.99900908
_cell_angle_gamma   90.74234174
_symmetry_Int_Tables_number   1
_chemical_formula_structural   LaTaN2O
_chemical_formula_sum   'La2 Ta2 N4 O2'
_cell_volume   133.42305236
_cell_formula_units_Z   2
loop_
 _symmetry_equiv_pos_site_id
 _symmetry_equiv_pos_as_xyz
  1  'x, y, z'
loop_
 _atom_site_type_symbol
 _atom_site_label
 _atom_site_symmetry_multiplicity
 _atom_site_fract_x
 _atom_site_fract_y
 _atom_site_fract_z
 _atom_site_occupancy
  N  N0  1  0.23124164  0.76880349  1.00000632  1
  La  La1  1  0.75039080  0.75043995  0.00690986  1
  N  N2  1  0.67445569  0.67440918  0.53148297  1
  Ta  Ta3  1  0.50005996  0.99996229  0.50005862  1
  La  La4  1  0.24952799  0.24957170  0.99309790  1
  O  O5  1  0.81091498  0.18908916  0.49998937  1
  N  N6  1  0.76884143  0.23119161  1.00000679  1
  O  O7  1  0.18910084  0.81090900  0.49999209  1
  N  N8  1  0.32561654  0.32556889  0.46852470  1
  Ta  Ta9  1  0.99985013  0.50005475  0.49993139  1
