# generated using pymatgen
data_CdGeO3
_symmetry_space_group_name_H-M   'P 1'
_cell_length_a   5.22793727
_cell_length_b   6.07045115
_cell_length_c   6.07045082
_cell_angle_alpha   126.46686270
_cell_angle_beta   90.31228281
_cell_angle_gamma   90.31227682
_symmetry_Int_Tables_number   1
_chemical_formula_structural   CdGeO3
_chemical_formula_sum   'Cd2 Ge2 O6'
_cell_volume   154.91909322
_cell_formula_units_Z   2
loop_
 _symmetry_equiv_pos_site_id
 _symmetry_equiv_pos_as_xyz
  1  'x, y, z'
loop_
 _atom_site_type_symbol
 _atom_site_label
 _atom_site_symmetry_multiplicity
 _atom_site_fract_x
 _atom_site_fract_y
 _atom_site_fract_z
 _atom_site_occupancy
  Cd  Cd0  1  0.24295186  0.22626654  -0.00532119  1
  Cd  Cd1  1  0.74295186  -0.00532119  0.22626654  1
  Ge  Ge2  1  0.31390570  0.55281534  0.67016173  1
  Ge  Ge3  1  0.81390570  0.67016172  0.55281534  1
  O  O4  1  0.05027670  0.37137379  0.40040383  1
  O  O5  1  0.05091108  0.81921164  0.85314342  1
  O  O6  1  0.41195467  0.40485750  0.82508742  1
  O  O7  1  0.55027670  0.40040383  0.37137379  1
  O  O8  1  0.55091108  0.85314342  0.81921164  1
  O  O9  1  0.91195467  0.82508742  0.40485750  1
