# generated using pymatgen
data_Ga2S3
_symmetry_space_group_name_H-M   'P 1'
_cell_length_a   7.54445265
_cell_length_b   11.25487266
_cell_length_c   6.46997469
_cell_angle_alpha   30.42534014
_cell_angle_beta   53.97530059
_cell_angle_gamma   59.52635897
_symmetry_Int_Tables_number   1
_chemical_formula_structural   Ga2S3
_chemical_formula_sum   'Ga4 S6'
_cell_volume   225.00863160
_cell_formula_units_Z   2
loop_
 _symmetry_equiv_pos_site_id
 _symmetry_equiv_pos_as_xyz
  1  'x, y, z'
loop_
 _atom_site_type_symbol
 _atom_site_label
 _atom_site_symmetry_multiplicity
 _atom_site_fract_x
 _atom_site_fract_y
 _atom_site_fract_z
 _atom_site_occupancy
  Ga  Ga0  1  0.00290888  0.99953401  0.01646161  1
  Ga  Ga1  1  0.00240763  0.67353589  0.97617291  1
  Ga  Ga2  1  0.50290888  0.33379899  0.01506363  1
  Ga  Ga3  1  0.50240763  0.65979811  0.99677958  1
  S  S4  1  0.13242012  0.99694189  0.25275440  1
  S  S5  1  0.12003057  0.32674400  0.25414807  1
  S  S6  1  0.62003057  0.00658900  0.23438107  1
  S  S7  1  0.11723280  0.66476356  0.25818450  1
  S  S8  1  0.63242012  0.33639111  0.24358006  1
  S  S9  1  0.61723280  0.66857044  0.25247419  1
