# generated using pymatgen
data_Ga5(PS)3
_symmetry_space_group_name_H-M   'P 1'
_cell_length_a   3.83125014
_cell_length_b   23.15555659
_cell_length_c   6.70375694
_cell_angle_alpha   29.71186595
_cell_angle_beta   55.14455748
_cell_angle_gamma   60.23979637
_symmetry_Int_Tables_number   1
_chemical_formula_structural   Ga5(PS)3
_chemical_formula_sum   'Ga5 P3 S3'
_cell_volume   241.88490572
_cell_formula_units_Z   1
loop_
 _symmetry_equiv_pos_site_id
 _symmetry_equiv_pos_as_xyz
  1  'x, y, z'
loop_
 _atom_site_type_symbol
 _atom_site_label
 _atom_site_symmetry_multiplicity
 _atom_site_fract_x
 _atom_site_fract_y
 _atom_site_fract_z
 _atom_site_occupancy
  Ga  Ga0  1  0.00132474  0.00772055  0.97551362  1
  Ga  Ga1  1  0.00132474  0.32561245  0.02183690  1
  Ga  Ga2  1  0.00705068  0.66666700  0.99294932  1
  Ga  Ga3  1  0.00498800  0.49771073  0.00187980  1
  Ga  Ga4  1  0.00498800  0.83562227  0.98814420  1
  P  P5  1  0.25252010  0.49520257  0.26187220  1
  P  P6  1  0.25344387  0.66666700  0.24655613  1
  P  P7  1  0.25252010  0.83813043  0.23308761  1
  S  S8  1  0.24358914  0.00330480  0.24649646  1
  S  S9  1  0.23466149  0.16666700  0.26533851  1
  S  S10  1  0.24358914  0.33002820  0.26632526  1
