# generated using pymatgen
data_LiAlB2O5
_symmetry_space_group_name_H-M   'P 1'
_cell_length_a   7.16464007
_cell_length_b   7.16464032
_cell_length_c   9.46906148
_cell_angle_alpha   110.75311475
_cell_angle_beta   110.75311555
_cell_angle_gamma   90.70908216
_symmetry_Int_Tables_number   1
_chemical_formula_structural   LiAlB2O5
_chemical_formula_sum   'Li4 Al4 B8 O20'
_cell_volume   419.71578442
_cell_formula_units_Z   4
loop_
 _symmetry_equiv_pos_site_id
 _symmetry_equiv_pos_as_xyz
  1  'x, y, z'
loop_
 _atom_site_type_symbol
 _atom_site_label
 _atom_site_symmetry_multiplicity
 _atom_site_fract_x
 _atom_site_fract_y
 _atom_site_fract_z
 _atom_site_occupancy
  Li  Li0  1  0.37670088  0.62329912  0.25000000  1
  Li  Li1  1  0.62329912  0.37670088  0.75000000  1
  Li  Li2  1  0.16028281  0.83971719  0.75000000  1
  Li  Li3  1  0.83971719  0.16028281  0.25000000  1
  Al  Al4  1  0.65352590  0.95615102  0.84789157  1
  Al  Al5  1  0.34647410  0.04384898  0.15210843  1
  Al  Al6  1  0.04384898  0.34647410  0.65210843  1
  Al  Al7  1  0.95615102  0.65352590  0.34789157  1
  B  B8  1  0.77203636  0.76208991  0.59166875  1
  B  B9  1  0.23791009  0.22796364  0.90833125  1
  B  B10  1  0.60369063  0.26000718  0.47139474  1
  B  B11  1  0.73999282  0.39630937  0.02860526  1
  B  B12  1  0.26000718  0.60369063  0.97139474  1
  B  B13  1  0.39630937  0.73999282  0.52860526  1
  B  B14  1  0.22796364  0.23791009  0.40833125  1
  B  B15  1  0.76208991  0.77203636  0.09166875  1
  O  O16  1  0.21895347  0.66843530  0.39432597  1
  O  O17  1  0.29320351  0.08280439  0.97051841  1
  O  O18  1  0.91719561  0.70679649  0.52948159  1
  O  O19  1  0.43366163  0.28591429  0.51766786  1
  O  O20  1  0.58493489  0.17219814  0.31306278  1
  O  O21  1  0.17219814  0.58493489  0.81306278  1
  O  O22  1  0.41506511  0.82780186  0.68693722  1
  O  O23  1  0.08280439  0.29320351  0.47051841  1
  O  O24  1  0.82481181  0.85967025  0.75499897  1
  O  O25  1  0.82780186  0.41506511  0.18693722  1
  O  O26  1  0.66843530  0.21895347  0.89432597  1
  O  O27  1  0.14032975  0.17518819  0.74500103  1
  O  O28  1  0.85967025  0.82481181  0.25499897  1
  O  O29  1  0.71408571  0.56633837  0.98233214  1
  O  O30  1  0.70679649  0.91719561  0.02948159  1
  O  O31  1  0.33156470  0.78104653  0.10567403  1
  O  O32  1  0.28591429  0.43366163  0.01766786  1
  O  O33  1  0.17518819  0.14032975  0.24500103  1
  O  O34  1  0.56633837  0.71408571  0.48233214  1
  O  O35  1  0.78104653  0.33156470  0.60567403  1
