# generated using pymatgen
data_ICl
_symmetry_space_group_name_H-M   'P 1'
_cell_length_a   5.39071152
_cell_length_b   11.61393684
_cell_length_c   12.52418743
_cell_angle_alpha   113.37082107
_cell_angle_beta   90.00000000
_cell_angle_gamma   90.00000000
_symmetry_Int_Tables_number   1
_chemical_formula_structural   ICl
_chemical_formula_sum   'I8 Cl8'
_cell_volume   719.77595597
_cell_formula_units_Z   8
loop_
 _symmetry_equiv_pos_site_id
 _symmetry_equiv_pos_as_xyz
  1  'x, y, z'
loop_
 _atom_site_type_symbol
 _atom_site_label
 _atom_site_symmetry_multiplicity
 _atom_site_fract_x
 _atom_site_fract_y
 _atom_site_fract_z
 _atom_site_occupancy
  I  I0  1  0.90326700  0.64600421  0.71368571  1
  I  I1  1  0.59673300  0.14600421  0.71368571  1
  I  I2  1  0.86281045  0.10828829  0.19620519  1
  I  I3  1  0.40326700  0.85399579  0.28631429  1
  I  I4  1  0.13718955  0.89171171  0.80379481  1
  I  I5  1  0.09673300  0.35399579  0.28631429  1
  I  I6  1  0.63718955  0.60828829  0.19620519  1
  I  I7  1  0.36281045  0.39171171  0.80379481  1
  Cl  Cl8  1  0.82106310  0.16824831  0.55620589  1
  Cl  Cl9  1  0.67893690  0.66824831  0.55620589  1
  Cl  Cl10  1  0.17893690  0.83175169  0.44379411  1
  Cl  Cl11  1  0.14912166  0.60921976  0.89069310  1
  Cl  Cl12  1  0.85087834  0.39078024  0.10930690  1
  Cl  Cl13  1  0.64912166  0.89078024  0.10930690  1
  Cl  Cl14  1  0.32106310  0.33175169  0.44379411  1
  Cl  Cl15  1  0.35087834  0.10921976  0.89069310  1
