# generated using pymatgen
data_RbSb2
_symmetry_space_group_name_H-M   'P 1'
_cell_length_a   4.23863254
_cell_length_b   7.40835468
_cell_length_c   8.72431698
_cell_angle_alpha   103.53772128
_cell_angle_beta   90.00000000
_cell_angle_gamma   106.62288481
_symmetry_Int_Tables_number   1
_chemical_formula_structural   RbSb2
_chemical_formula_sum   'Rb2 Sb4'
_cell_volume   254.55215011
_cell_formula_units_Z   2
loop_
 _symmetry_equiv_pos_site_id
 _symmetry_equiv_pos_as_xyz
  1  'x, y, z'
loop_
 _atom_site_type_symbol
 _atom_site_label
 _atom_site_symmetry_multiplicity
 _atom_site_fract_x
 _atom_site_fract_y
 _atom_site_fract_z
 _atom_site_occupancy
  Rb  Rb0  1  0.83529090  0.67058180  0.30222672  1
  Rb  Rb1  1  0.16470910  0.32941820  0.69777328  1
  Sb  Sb2  1  0.56528909  0.13057819  0.31364342  1
  Sb  Sb3  1  0.90476711  0.80953423  0.89249451  1
  Sb  Sb4  1  0.09523289  0.19046577  0.10750549  1
  Sb  Sb5  1  0.43471091  0.86942181  0.68635658  1
