# generated using pymatgen
data_Tm2P4O13
_symmetry_space_group_name_H-M   'P 1'
_cell_length_a   7.00321978
_cell_length_b   9.40252964
_cell_length_c   8.54622458
_cell_angle_alpha   90.00000000
_cell_angle_beta   90.00000000
_cell_angle_gamma   68.13558728
_symmetry_Int_Tables_number   1
_chemical_formula_structural   Tm2P4O13
_chemical_formula_sum   'Tm4 P8 O26'
_cell_volume   522.27164295
_cell_formula_units_Z   2
loop_
 _symmetry_equiv_pos_site_id
 _symmetry_equiv_pos_as_xyz
  1  'x, y, z'
loop_
 _atom_site_type_symbol
 _atom_site_label
 _atom_site_symmetry_multiplicity
 _atom_site_fract_x
 _atom_site_fract_y
 _atom_site_fract_z
 _atom_site_occupancy
  Tm  Tm0  1  0.40119523  0.70575327  0.39789884  1
  Tm  Tm1  1  0.89305150  0.70575327  0.60210116  1
  Tm  Tm2  1  0.10694850  0.29424673  0.10210116  1
  Tm  Tm3  1  0.59880477  0.29424673  0.89789884  1
  P  P4  1  0.28051432  0.88410434  0.02560601  1
  P  P5  1  0.83538134  0.88410434  0.97439399  1
  P  P6  1  0.90497989  0.67954822  0.24781382  1
  P  P7  1  0.41547189  0.67954822  0.75218618  1
  P  P8  1  0.58452811  0.32045178  0.25218618  1
  P  P9  1  0.09502011  0.32045178  0.74781382  1
  P  P10  1  0.71948568  0.11589566  0.52560601  1
  P  P11  1  0.16461866  0.11589566  0.47439399  1
  O  O12  1  0.74333125  0.95208985  0.54733979  1
  O  O13  1  0.30457890  0.95208985  0.45266021  1
  O  O14  1  0.06161385  0.87677330  0.00000000  1
  O  O15  1  0.78545177  0.82955940  0.14127318  1
  O  O16  1  0.38498883  0.82955940  0.85872682  1
  O  O17  1  0.84144766  0.77041569  0.84954452  1
  O  O18  1  0.38813665  0.77041569  0.15045548  1
  O  O19  1  0.06966045  0.70987230  0.34878234  1
  O  O20  1  0.22046725  0.70987230  0.65121766  1
  O  O21  1  0.58209810  0.67758261  0.63406471  1
  O  O22  1  0.74032029  0.67758261  0.36593529  1
  O  O23  1  0.47347742  0.54195944  0.85873076  1
  O  O24  1  0.98456314  0.54195944  0.14126924  1
  O  O25  1  0.52652258  0.45804056  0.35873076  1
  O  O26  1  0.01543686  0.45804056  0.64126924  1
  O  O27  1  0.41790190  0.32241739  0.13406471  1
  O  O28  1  0.25967971  0.32241739  0.86593529  1
  O  O29  1  0.93033955  0.29012770  0.84878234  1
  O  O30  1  0.77953275  0.29012770  0.15121766  1
  O  O31  1  0.15855234  0.22958431  0.34954452  1
  O  O32  1  0.61186335  0.22958431  0.65045548  1
  O  O33  1  0.61501117  0.17044060  0.35872682  1
  O  O34  1  0.21454823  0.17044060  0.64127318  1
  O  O35  1  0.93838615  0.12322670  0.50000000  1
  O  O36  1  0.69542110  0.04791015  0.95266021  1
  O  O37  1  0.25666875  0.04791015  0.04733979  1
