# generated using pymatgen
data_SO3
_symmetry_space_group_name_H-M   'P 1'
_cell_length_a   4.17941319
_cell_length_b   6.48120159
_cell_length_c   9.67700901
_cell_angle_alpha   108.91218572
_cell_angle_beta   90.00000000
_cell_angle_gamma   90.00000000
_symmetry_Int_Tables_number   1
_chemical_formula_structural   SO3
_chemical_formula_sum   'S4 O12'
_cell_volume   247.97658298
_cell_formula_units_Z   4
loop_
 _symmetry_equiv_pos_site_id
 _symmetry_equiv_pos_as_xyz
  1  'x, y, z'
loop_
 _atom_site_type_symbol
 _atom_site_label
 _atom_site_symmetry_multiplicity
 _atom_site_fract_x
 _atom_site_fract_y
 _atom_site_fract_z
 _atom_site_occupancy
  S  S0  1  0.52470397  0.37833638  0.20765826  1
  S  S1  1  0.47529603  0.62166362  0.79234174  1
  S  S2  1  0.97529603  0.87833638  0.70765826  1
  S  S3  1  0.02470397  0.12166362  0.29234174  1
  O  O4  1  0.31889410  0.65815150  0.92808125  1
  O  O5  1  0.13147397  0.07301789  0.79099094  1
  O  O6  1  0.63147397  0.42698211  0.70900906  1
  O  O7  1  0.18110590  0.15815150  0.42808125  1
  O  O8  1  0.72576401  0.83004260  0.82626257  1
  O  O9  1  0.81889410  0.84184850  0.57191875  1
  O  O10  1  0.36852603  0.57301789  0.29099094  1
  O  O11  1  0.27423599  0.16995740  0.17373743  1
  O  O12  1  0.86852603  0.92698211  0.20900906  1
  O  O13  1  0.77423599  0.33004260  0.32626257  1
  O  O14  1  0.68110590  0.34184850  0.07191875  1
  O  O15  1  0.22576401  0.66995740  0.67373743  1
