# generated using pymatgen
data_PNO
_symmetry_space_group_name_H-M   'P 1'
_cell_length_a   4.78361171
_cell_length_b   4.78361184
_cell_length_c   5.28120664
_cell_angle_alpha   90.00000000
_cell_angle_beta   90.00000000
_cell_angle_gamma   119.99999905
_symmetry_Int_Tables_number   1
_chemical_formula_structural   PNO
_chemical_formula_sum   'P3 N3 O3'
_cell_volume   104.65877545
_cell_formula_units_Z   3
loop_
 _symmetry_equiv_pos_site_id
 _symmetry_equiv_pos_as_xyz
  1  'x, y, z'
loop_
 _atom_site_type_symbol
 _atom_site_label
 _atom_site_symmetry_multiplicity
 _atom_site_fract_x
 _atom_site_fract_y
 _atom_site_fract_z
 _atom_site_occupancy
  N  N0  1  0.38833144  0.26058232  0.78215230  1
  N  N1  1  0.87225088  0.61166856  0.11548530  1
  N  N2  1  0.73941768  0.12774912  0.44881930  1
  O  O3  1  0.14647839  0.72028696  0.55633816  1
  O  O4  1  0.27971304  0.42619143  0.22300516  1
  O  O5  1  0.57380857  0.85352161  0.88967216  1
  P  P6  1  0.98590592  0.46191622  0.32817554  1
  P  P7  1  0.53808378  0.52398969  0.99484254  1
  P  P8  1  0.47601031  0.01409408  0.66150954  1
