# generated using pymatgen
data_Nd3CuSnSe7
_symmetry_space_group_name_H-M   'P 1'
_cell_length_a   10.61803155
_cell_length_b   10.61803155
_cell_length_c   6.39032720
_cell_angle_alpha   90.00000000
_cell_angle_beta   90.00000000
_cell_angle_gamma   119.99999999
_symmetry_Int_Tables_number   1
_chemical_formula_structural   Nd3CuSnSe7
_chemical_formula_sum   'Nd6 Cu2 Sn2 Se14'
_cell_volume   623.93845107
_cell_formula_units_Z   2
loop_
 _symmetry_equiv_pos_site_id
 _symmetry_equiv_pos_as_xyz
  1  'x, y, z'
loop_
 _atom_site_type_symbol
 _atom_site_label
 _atom_site_symmetry_multiplicity
 _atom_site_fract_x
 _atom_site_fract_y
 _atom_site_fract_z
 _atom_site_occupancy
  Cu  Cu0  1  0.00000000  0.00000000  0.51341300  1
  Cu  Cu1  1  0.00000000  0.00000000  0.01341300  1
  Se  Se2  1  0.48619297  0.56990091  0.20610248  1
  Se  Se3  1  0.91629206  0.48619297  0.70610248  1
  Se  Se4  1  0.56990091  0.08370794  0.70610248  1
  Se  Se5  1  0.43009909  0.91629206  0.20610248  1
  Se  Se6  1  0.33333333  0.66666667  0.77656956  1
  Se  Se7  1  0.66666667  0.33333333  0.27656956  1
  Se  Se8  1  0.08370794  0.51380703  0.20610248  1
  Se  Se9  1  0.51380703  0.43009909  0.70610248  1
  Se  Se10  1  0.25790290  0.10292107  0.99842853  1
  Se  Se11  1  0.15498183  0.25790290  0.49842853  1
  Se  Se12  1  0.10292107  0.84501817  0.49842853  1
  Se  Se13  1  0.89707893  0.15498183  0.99842853  1
  Se  Se14  1  0.84501817  0.74209710  0.99842853  1
  Se  Se15  1  0.74209710  0.89707893  0.49842853  1
  Sn  Sn16  1  0.66666667  0.33333333  0.88083896  1
  Sn  Sn17  1  0.33333333  0.66666667  0.38083896  1
  Nd  Nd18  1  0.64426490  0.86145946  0.95752848  1
  Nd  Nd19  1  0.78280544  0.64426490  0.45752848  1
  Nd  Nd20  1  0.86145946  0.21719456  0.45752848  1
  Nd  Nd21  1  0.13854054  0.78280544  0.95752848  1
  Nd  Nd22  1  0.21719456  0.35573510  0.95752848  1
  Nd  Nd23  1  0.35573510  0.13854054  0.45752848  1
