# generated using pymatgen
data_CrMoF6
_symmetry_space_group_name_H-M   'P 1'
_cell_length_a   5.25900147
_cell_length_b   5.59040235
_cell_length_c   5.26165760
_cell_angle_alpha   61.90362117
_cell_angle_beta   60.00633009
_cell_angle_gamma   90.00494602
_symmetry_Int_Tables_number   1
_chemical_formula_structural   CrMoF6
_chemical_formula_sum   'Cr1 Mo1 F6'
_cell_volume   112.43224712
_cell_formula_units_Z   1
loop_
 _symmetry_equiv_pos_site_id
 _symmetry_equiv_pos_as_xyz
  1  'x, y, z'
loop_
 _atom_site_type_symbol
 _atom_site_label
 _atom_site_symmetry_multiplicity
 _atom_site_fract_x
 _atom_site_fract_y
 _atom_site_fract_z
 _atom_site_occupancy
  F  F0  1  0.23808946  0.75909026  0.12600349  1
  F  F1  1  0.76191054  0.24090974  0.87399651  1
  F  F2  1  0.36430156  0.24085009  0.52098466  1
  F  F3  1  0.63569844  0.75914991  0.47901534  1
  F  F4  1  0.88522194  0.75929449  0.87668723  1
  F  F5  1  0.11477806  0.24070551  0.12331277  1
  Cr  Cr6  1  0.00000000  0.00000000  0.00000000  1
  Mo  Mo7  1  0.50000000  0.50000000  0.00000000  1
