# generated using pymatgen
data_Li2NiBO4
_symmetry_space_group_name_H-M   'P 1'
_cell_length_a   4.94591466
_cell_length_b   4.94591466
_cell_length_c   6.10975146
_cell_angle_alpha   90.00000000
_cell_angle_beta   90.00000000
_cell_angle_gamma   87.92323353
_symmetry_Int_Tables_number   1
_chemical_formula_structural   Li2NiBO4
_chemical_formula_sum   'Li4 Ni2 B2 O8'
_cell_volume   149.35901097
_cell_formula_units_Z   2
loop_
 _symmetry_equiv_pos_site_id
 _symmetry_equiv_pos_as_xyz
  1  'x, y, z'
loop_
 _atom_site_type_symbol
 _atom_site_label
 _atom_site_symmetry_multiplicity
 _atom_site_fract_x
 _atom_site_fract_y
 _atom_site_fract_z
 _atom_site_occupancy
  Li  Li0  1  0.31899090  0.68100910  0.50000000  1
  Li  Li1  1  0.19220502  0.19220502  0.75000000  1
  Li  Li2  1  0.80779498  0.80779498  0.25000000  1
  Li  Li3  1  0.68100910  0.31899090  0.00000000  1
  Ni  Ni4  1  0.18731410  0.18731410  0.25000000  1
  Ni  Ni5  1  0.81268590  0.81268590  0.75000000  1
  B  B6  1  0.31567123  0.68432877  0.00000000  1
  B  B7  1  0.68432877  0.31567123  0.50000000  1
  O  O8  1  0.20382666  0.80833686  0.20212449  1
  O  O9  1  0.19166314  0.79617334  0.79787551  1
  O  O10  1  0.27948005  0.38416895  0.00891204  1
  O  O11  1  0.61583105  0.72051995  0.99108796  1
  O  O12  1  0.38416895  0.27948005  0.49108796  1
  O  O13  1  0.72051995  0.61583105  0.50891204  1
  O  O14  1  0.79617334  0.19166314  0.70212449  1
  O  O15  1  0.80833686  0.20382666  0.29787551  1
