# generated using pymatgen
data_CaCl2
_symmetry_space_group_name_H-M   'P 1'
_cell_length_a   6.34015706
_cell_length_b   6.97798950
_cell_length_c   7.71403302
_cell_angle_alpha   90.00000000
_cell_angle_beta   90.00000000
_cell_angle_gamma   90.00000000
_symmetry_Int_Tables_number   1
_chemical_formula_structural   CaCl2
_chemical_formula_sum   'Ca4 Cl8'
_cell_volume   341.28077287
_cell_formula_units_Z   4
loop_
 _symmetry_equiv_pos_site_id
 _symmetry_equiv_pos_as_xyz
  1  'x, y, z'
loop_
 _atom_site_type_symbol
 _atom_site_label
 _atom_site_symmetry_multiplicity
 _atom_site_fract_x
 _atom_site_fract_y
 _atom_site_fract_z
 _atom_site_occupancy
  Ca  Ca0  1  0.00000000  0.25000000  0.15310234  1
  Ca  Ca1  1  0.50000000  0.25000000  0.65310234  1
  Ca  Ca2  1  0.00000000  0.75000000  0.84689766  1
  Ca  Ca3  1  0.50000000  0.75000000  0.34689766  1
  Cl  Cl4  1  0.23659743  0.42189084  0.89142435  1
  Cl  Cl5  1  0.73659743  0.57810916  0.60857565  1
  Cl  Cl6  1  0.76340257  0.57810916  0.10857565  1
  Cl  Cl7  1  0.23659743  0.92189084  0.10857565  1
  Cl  Cl8  1  0.73659743  0.07810916  0.39142435  1
  Cl  Cl9  1  0.26340257  0.42189084  0.39142435  1
  Cl  Cl10  1  0.26340257  0.92189084  0.60857565  1
  Cl  Cl11  1  0.76340257  0.07810916  0.89142435  1
