# generated using pymatgen
data_Ge(Bi3O5)4
_symmetry_space_group_name_H-M   'P 1'
_cell_length_a   8.91855075
_cell_length_b   8.91855075
_cell_length_c   8.91855075
_cell_angle_alpha   109.47122064
_cell_angle_beta   109.47122065
_cell_angle_gamma   109.47122062
_symmetry_Int_Tables_number   1
_chemical_formula_structural   Ge(Bi3O5)4
_chemical_formula_sum   'Ge1 Bi12 O20'
_cell_volume   546.08591192
_cell_formula_units_Z   1
loop_
 _symmetry_equiv_pos_site_id
 _symmetry_equiv_pos_as_xyz
  1  'x, y, z'
loop_
 _atom_site_type_symbol
 _atom_site_label
 _atom_site_symmetry_multiplicity
 _atom_site_fract_x
 _atom_site_fract_y
 _atom_site_fract_z
 _atom_site_occupancy
  O  O0  1  0.20152975  0.00000000  0.00000000  1
  O  O1  1  0.00000000  0.00000000  0.20152975  1
  O  O2  1  0.00000000  0.20152975  0.00000000  1
  O  O3  1  0.79847025  0.79847025  0.79847025  1
  O  O4  1  0.61091042  0.00000000  0.00000000  1
  O  O5  1  0.00000000  0.00000000  0.61091042  1
  O  O6  1  0.00000000  0.61091042  0.00000000  1
  O  O7  1  0.38908958  0.38908958  0.38908958  1
  O  O8  1  0.26046631  0.64332861  0.88052405  1
  O  O9  1  0.76280456  0.37994226  0.11947595  1
  O  O10  1  0.23719544  0.35667139  0.61713770  1
  O  O11  1  0.62005774  0.38286230  0.73953369  1
  O  O12  1  0.38286230  0.73953369  0.62005774  1
  O  O13  1  0.73953369  0.62005774  0.38286230  1
  O  O14  1  0.35667139  0.61713770  0.23719544  1
  O  O15  1  0.11947595  0.76280456  0.37994226  1
  O  O16  1  0.64332861  0.88052405  0.26046631  1
  O  O17  1  0.61713770  0.23719544  0.35667139  1
  O  O18  1  0.37994226  0.11947595  0.76280456  1
  O  O19  1  0.88052405  0.26046631  0.64332861  1
  Ge  Ge20  1  0.00000000  0.00000000  0.00000000  1
  Bi  Bi21  1  0.66609987  0.16156209  0.85855091  1
  Bi  Bi22  1  0.30301118  0.80754896  0.14144909  1
  Bi  Bi23  1  0.69698882  0.83843791  0.50453778  1
  Bi  Bi24  1  0.19245104  0.49546222  0.33390013  1
  Bi  Bi25  1  0.49546222  0.33390013  0.19245104  1
  Bi  Bi26  1  0.85855091  0.66609987  0.16156209  1
  Bi  Bi27  1  0.80754896  0.14144909  0.30301118  1
  Bi  Bi28  1  0.50453778  0.69698882  0.83843791  1
  Bi  Bi29  1  0.16156209  0.85855091  0.66609987  1
  Bi  Bi30  1  0.14144909  0.30301118  0.80754896  1
  Bi  Bi31  1  0.83843791  0.50453778  0.69698882  1
  Bi  Bi32  1  0.33390013  0.19245104  0.49546222  1
