# generated using pymatgen
data_LiTaWO6
_symmetry_space_group_name_H-M   'P 1'
_cell_length_a   7.37454644
_cell_length_b   7.34087698
_cell_length_c   7.37454644
_cell_angle_alpha   119.84908253
_cell_angle_beta   119.59896973
_cell_angle_gamma   60.15091747
_symmetry_Int_Tables_number   1
_chemical_formula_structural   LiTaWO6
_chemical_formula_sum   'Li2 Ta2 W2 O12'
_cell_volume   283.78896340
_cell_formula_units_Z   2
loop_
 _symmetry_equiv_pos_site_id
 _symmetry_equiv_pos_as_xyz
  1  'x, y, z'
loop_
 _atom_site_type_symbol
 _atom_site_label
 _atom_site_symmetry_multiplicity
 _atom_site_fract_x
 _atom_site_fract_y
 _atom_site_fract_z
 _atom_site_occupancy
  Li  Li0  1  0.12500000  0.62500000  0.37500000  1
  Li  Li1  1  0.62500000  0.62500000  0.87500000  1
  Ta  Ta2  1  0.12500000  0.62500000  0.87500000  1
  Ta  Ta3  1  0.12500000  0.12500000  0.87500000  1
  W  W4  1  0.12500000  0.12500000  0.37500000  1
  W  W5  1  0.62500000  0.12500000  0.87500000  1
  O  O6  1  0.44168486  0.43487336  0.93542479  1
  O  O7  1  0.44168486  0.05886657  0.93542479  1
  O  O8  1  0.18542479  0.81512664  0.19168486  1
  O  O9  1  0.18542479  0.19113343  0.19168486  1
  O  O10  1  0.43168675  0.06831325  0.56831325  1
  O  O11  1  0.05069974  0.44930026  0.94930026  1
  O  O12  1  0.81831325  0.18168675  0.18168675  1
  O  O13  1  0.19930026  0.80069974  0.80069974  1
  O  O14  1  0.06457521  0.43487336  0.55831514  1
  O  O15  1  0.80831514  0.19113343  0.81457521  1
  O  O16  1  0.80831514  0.81512664  0.81457521  1
  O  O17  1  0.06457521  0.05886657  0.55831514  1
