# generated using pymatgen
data_CaSiN2
_symmetry_space_group_name_H-M   'P 1'
_cell_length_a   6.15727530
_cell_length_b   11.04631894
_cell_length_c   6.84259473
_cell_angle_alpha   90.00000000
_cell_angle_beta   90.00000000
_cell_angle_gamma   26.23174305
_symmetry_Int_Tables_number   1
_chemical_formula_structural   CaSiN2
_chemical_formula_sum   'Ca4 Si4 N8'
_cell_volume   205.70842191
_cell_formula_units_Z   4
loop_
 _symmetry_equiv_pos_site_id
 _symmetry_equiv_pos_as_xyz
  1  'x, y, z'
loop_
 _atom_site_type_symbol
 _atom_site_label
 _atom_site_symmetry_multiplicity
 _atom_site_fract_x
 _atom_site_fract_y
 _atom_site_fract_z
 _atom_site_occupancy
  Ca  Ca0  1  1.00000000  0.17594690  0.57239597  1
  Ca  Ca1  1  0.00000000  0.82405310  0.42760403  1
  Ca  Ca2  1  0.00000000  0.32405310  0.07239597  1
  Ca  Ca3  1  1.00000000  0.67594690  0.92760403  1
  Si  Si4  1  0.00000000  0.43829471  0.64251559  1
  Si  Si5  1  0.00000000  0.56170529  0.35748441  1
  Si  Si6  1  0.00000000  0.06170529  0.14251559  1
  Si  Si7  1  0.00000000  0.93829471  0.85748441  1
  N  N8  1  1.00000000  0.09740342  0.88987735  1
  N  N9  1  0.00000000  0.90259658  0.11012265  1
  N  N10  1  0.00000000  0.40259658  0.38987735  1
  N  N11  1  1.00000000  0.59740342  0.61012265  1
  N  N12  1  0.50000000  0.61915585  0.75000000  1
  N  N13  1  0.50000000  0.88084415  0.25000000  1
  N  N14  1  0.50000000  0.38084415  0.25000000  1
  N  N15  1  0.50000000  0.11915585  0.75000000  1
