# generated using pymatgen
data_Li3GaGeO5
_symmetry_space_group_name_H-M   'P 1'
_cell_length_a   5.01458574
_cell_length_b   5.52817779
_cell_length_c   16.05410337
_cell_angle_alpha   90.00000000
_cell_angle_beta   90.00000000
_cell_angle_gamma   90.00000000
_symmetry_Int_Tables_number   1
_chemical_formula_structural   Li3GaGeO5
_chemical_formula_sum   'Li12 Ga4 Ge4 O20'
_cell_volume   445.04417196
_cell_formula_units_Z   4
loop_
 _symmetry_equiv_pos_site_id
 _symmetry_equiv_pos_as_xyz
  1  'x, y, z'
loop_
 _atom_site_type_symbol
 _atom_site_label
 _atom_site_symmetry_multiplicity
 _atom_site_fract_x
 _atom_site_fract_y
 _atom_site_fract_z
 _atom_site_occupancy
  Li  Li0  1  0.49269039  0.32587306  0.40331983  1
  Li  Li1  1  0.99269039  0.67412694  0.59668017  1
  Li  Li2  1  0.99269039  0.17412694  0.90331983  1
  Li  Li3  1  0.49269039  0.82587306  0.09668017  1
  Li  Li4  1  0.49499730  0.83761237  0.50411678  1
  Li  Li5  1  0.99499730  0.16238763  0.49588322  1
  Li  Li6  1  0.99499730  0.66238763  0.00411678  1
  Li  Li7  1  0.49499730  0.33761237  0.99588322  1
  Li  Li8  1  0.49329023  0.82930651  0.69732231  1
  Li  Li9  1  0.99329023  0.17069349  0.30267769  1
  Li  Li10  1  0.99329023  0.67069349  0.19732231  1
  Li  Li11  1  0.49329023  0.32930651  0.80267769  1
  O  O12  1  0.59413662  0.15200267  0.29449788  1
  O  O13  1  0.13655099  0.81926597  0.89413259  1
  O  O14  1  0.13655099  0.31926597  0.60586741  1
  O  O15  1  0.63655099  0.18073403  0.10586741  1
  O  O16  1  0.10085433  0.32023355  0.00873358  1
  O  O17  1  0.60085433  0.67976645  0.99126642  1
  O  O18  1  0.60085433  0.17976645  0.50873358  1
  O  O19  1  0.10085433  0.82023355  0.49126642  1
  O  O20  1  0.09913122  0.86020322  0.10209886  1
  O  O21  1  0.59913122  0.13979678  0.89790114  1
  O  O22  1  0.59913122  0.63979678  0.60209886  1
  O  O23  1  0.09913122  0.36020322  0.39790114  1
  O  O24  1  0.11671046  0.31751847  0.19109755  1
  O  O25  1  0.61671046  0.68248153  0.80890245  1
  O  O26  1  0.61671046  0.18248153  0.69109755  1
  O  O27  1  0.11671046  0.81751847  0.30890245  1
  O  O28  1  0.09413662  0.34799733  0.79449788  1
  O  O29  1  0.59413662  0.65200267  0.20550212  1
  O  O30  1  0.63655099  0.68073403  0.39413259  1
  O  O31  1  0.09413662  0.84799733  0.70550212  1
  Ga  Ga32  1  0.49279855  0.32926907  0.20085177  1
  Ga  Ga33  1  0.99279855  0.67073093  0.79914823  1
  Ga  Ga34  1  0.99279855  0.17073093  0.70085177  1
  Ga  Ga35  1  0.49279855  0.82926907  0.29914823  1
  Ge  Ge36  1  0.99883989  0.16184220  0.09676186  1
  Ge  Ge37  1  0.49883989  0.83815780  0.90323814  1
  Ge  Ge38  1  0.49883989  0.33815780  0.59676186  1
  Ge  Ge39  1  0.99883989  0.66184220  0.40323814  1
