# generated using pymatgen
data_MnPO4
_symmetry_space_group_name_H-M   'P 1'
_cell_length_a   8.17564775
_cell_length_b   4.82582705
_cell_length_c   8.99237497
_cell_angle_alpha   90.00000000
_cell_angle_beta   107.62227877
_cell_angle_gamma   90.00000000
_symmetry_Int_Tables_number   1
_chemical_formula_structural   MnPO4
_chemical_formula_sum   'Mn4 P4 O16'
_cell_volume   338.13841296
_cell_formula_units_Z   4
loop_
 _symmetry_equiv_pos_site_id
 _symmetry_equiv_pos_as_xyz
  1  'x, y, z'
loop_
 _atom_site_type_symbol
 _atom_site_label
 _atom_site_symmetry_multiplicity
 _atom_site_fract_x
 _atom_site_fract_y
 _atom_site_fract_z
 _atom_site_occupancy
  Mn  Mn0  1  0.53392263  0.87509956  0.26134152  1
  Mn  Mn1  1  0.46607737  0.37509956  0.73865848  1
  Mn  Mn2  1  0.01088763  0.98997666  0.17920825  1
  Mn  Mn3  1  0.98911237  0.48997666  0.82079175  1
  P  P4  1  0.24849395  0.02910042  0.92892414  1
  P  P5  1  0.76594654  0.01954662  0.62843820  1
  P  P6  1  0.23405346  0.51954662  0.37156180  1
  P  P7  1  0.75150605  0.52910042  0.07107586  1
  O  O8  1  0.28611711  0.16972024  0.79035840  1
  O  O9  1  0.58775150  0.53882871  0.92918219  1
  O  O10  1  0.35645665  0.63013673  0.28420142  1
  O  O11  1  0.18386299  0.21898186  0.31794997  1
  O  O12  1  0.10198183  0.19422021  0.97250103  1
  O  O13  1  0.92640622  0.20706433  0.66193626  1
  O  O14  1  0.64354335  0.13013673  0.71579958  1
  O  O15  1  0.07359378  0.70706433  0.33806374  1
  O  O16  1  0.32371165  0.52223905  0.54925445  1
  O  O17  1  0.81613701  0.71898186  0.68205003  1
  O  O18  1  0.89801817  0.69422021  0.02749897  1
  O  O19  1  0.67628835  0.02223905  0.45074555  1
  O  O20  1  0.19009544  0.72895161  0.88961260  1
  O  O21  1  0.71388289  0.66972024  0.20964160  1
  O  O22  1  0.41224850  0.03882871  0.07081781  1
  O  O23  1  0.80990456  0.22895161  0.11038740  1
