# generated using pymatgen
data_Li7TaO6
_symmetry_space_group_name_H-M   'P 1'
_cell_length_a   5.60229755
_cell_length_b   5.60229754
_cell_length_c   14.74890930
_cell_angle_alpha   90.00000000
_cell_angle_beta   90.00000000
_cell_angle_gamma   120.00000004
_symmetry_Int_Tables_number   1
_chemical_formula_structural   Li7TaO6
_chemical_formula_sum   'Li21 Ta3 O18'
_cell_volume   400.88783590
_cell_formula_units_Z   3
loop_
 _symmetry_equiv_pos_site_id
 _symmetry_equiv_pos_as_xyz
  1  'x, y, z'
loop_
 _atom_site_type_symbol
 _atom_site_label
 _atom_site_symmetry_multiplicity
 _atom_site_fract_x
 _atom_site_fract_y
 _atom_site_fract_z
 _atom_site_occupancy
  Li  Li0  1  0.38276406  0.38924509  0.11535232  1
  Li  Li1  1  0.61075491  0.99351897  0.11535232  1
  Li  Li2  1  0.00648103  0.61723594  0.11535232  1
  Li  Li3  1  0.60396368  0.65019001  0.88509325  1
  Li  Li4  1  0.34980999  0.95377367  0.88509325  1
  Li  Li5  1  0.04622633  0.39603632  0.88509325  1
  Li  Li6  1  0.04942302  0.72260496  0.44860330  1
  Li  Li7  1  0.27739504  0.32681806  0.44860330  1
  Li  Li8  1  0.67318194  0.95057698  0.44860330  1
  Li  Li9  1  0.93726282  0.31682335  0.55181511  1
  Li  Li10  1  0.68317665  0.62043947  0.55181511  1
  Li  Li11  1  0.37956053  0.06273718  0.55181511  1
  Li  Li12  1  0.71609635  0.05592459  0.78195963  1
  Li  Li13  1  0.94407541  0.66017176  0.78195963  1
  Li  Li14  1  0.33982824  0.28390365  0.78195963  1
  Li  Li15  1  0.27063339  0.98353669  0.21842813  1
  Li  Li16  1  0.01646331  0.28709670  0.21842813  1
  Li  Li17  1  0.71290330  0.72936661  0.21842813  1
  Li  Li18  1  0.00000000  0.00000000  0.65458849  1
  Li  Li19  1  0.66666667  0.33333333  0.98793164  1
  Li  Li20  1  0.33333333  0.66666667  0.32124956  1
  O  O21  1  0.63216935  0.02173719  0.25308293  1
  O  O22  1  0.38956784  0.36783065  0.25308293  1
  O  O23  1  0.97826281  0.61043216  0.25308293  1
  O  O24  1  0.71620170  0.70672592  0.08171424  1
  O  O25  1  0.29327408  0.00947578  0.08171424  1
  O  O26  1  0.99052422  0.28379830  0.08171424  1
  O  O27  1  0.31158707  0.27705560  0.91974497  1
  O  O28  1  0.72294440  0.03453147  0.91974497  1
  O  O29  1  0.96546853  0.68841293  0.91974497  1
  O  O30  1  0.38285570  0.04008991  0.41502582  1
  O  O31  1  0.95991009  0.34276579  0.41502582  1
  O  O32  1  0.65723421  0.61714430  0.41502582  1
  O  O33  1  0.64491553  0.94373818  0.58641110  1
  O  O34  1  0.05626182  0.70117735  0.58641110  1
  O  O35  1  0.29882265  0.35508447  0.58641110  1
  O  O36  1  0.04951136  0.37336153  0.74834600  1
  O  O37  1  0.62663847  0.67614983  0.74834600  1
  O  O38  1  0.32385017  0.95048864  0.74834600  1
  Ta  Ta39  1  0.33333333  0.66666667  0.66796355  1
  Ta  Ta40  1  0.66666667  0.33333333  0.33468651  1
  Ta  Ta41  1  0.00000000  0.00000000  0.00134989  1
