# generated using pymatgen
data_Na3VH6O7
_symmetry_space_group_name_H-M   'P 1'
_cell_length_a   5.58858246
_cell_length_b   5.58858246
_cell_length_c   5.58858219
_cell_angle_alpha   100.00374278
_cell_angle_beta   100.00374272
_cell_angle_gamma   100.00373374
_symmetry_Int_Tables_number   1
_chemical_formula_structural   Na3VH6O7
_chemical_formula_sum   'Na3 V1 H6 O7'
_cell_volume   165.49387633
_cell_formula_units_Z   1
loop_
 _symmetry_equiv_pos_site_id
 _symmetry_equiv_pos_as_xyz
  1  'x, y, z'
loop_
 _atom_site_type_symbol
 _atom_site_label
 _atom_site_symmetry_multiplicity
 _atom_site_fract_x
 _atom_site_fract_y
 _atom_site_fract_z
 _atom_site_occupancy
  Na  Na0  1  0.62431489  0.42857729  0.17735218  1
  Na  Na1  1  0.42857729  0.17735218  0.62431489  1
  Na  Na2  1  0.17735218  0.62431489  0.42857729  1
  V  V3  1  0.99738354  0.99738354  0.99738354  1
  H  H4  1  0.88362467  0.51113786  0.75089164  1
  H  H5  1  0.51113786  0.75089164  0.88362467  1
  H  H6  1  0.75089164  0.88362468  0.51113786  1
  H  H7  1  0.92346146  0.25611588  0.60775334  1
  H  H8  1  0.25611588  0.60775334  0.92346146  1
  H  H9  1  0.60775334  0.92346146  0.25611588  1
  O  O10  1  0.21827267  0.21827267  0.21827267  1
  O  O11  1  0.99978599  0.69370904  0.04377635  1
  O  O12  1  0.69370904  0.04377635  0.99978599  1
  O  O13  1  0.04377635  0.99978599  0.69370904  1
  O  O14  1  0.83951181  0.39704219  0.58220918  1
  O  O15  1  0.39704219  0.58220918  0.83951181  1
  O  O16  1  0.58220918  0.83951181  0.39704219  1
