# generated using pymatgen
data_Sr2H5Rh
_symmetry_space_group_name_H-M   'P 1'
_cell_length_a   5.44716174
_cell_length_b   5.44716181
_cell_length_c   5.35820145
_cell_angle_alpha   60.53877997
_cell_angle_beta   60.53878358
_cell_angle_gamma   58.92242972
_symmetry_Int_Tables_number   1
_chemical_formula_structural   Sr2H5Rh
_chemical_formula_sum   'Sr2 H5 Rh1'
_cell_volume   112.36124634
_cell_formula_units_Z   1
loop_
 _symmetry_equiv_pos_site_id
 _symmetry_equiv_pos_as_xyz
  1  'x, y, z'
loop_
 _atom_site_type_symbol
 _atom_site_label
 _atom_site_symmetry_multiplicity
 _atom_site_fract_x
 _atom_site_fract_y
 _atom_site_fract_z
 _atom_site_occupancy
  H  H0  1  0.22782590  0.78243153  0.21756847  1
  H  H1  1  0.78243153  0.22782590  0.21756847  1
  H  H2  1  0.22782590  0.78243153  0.77217410  1
  H  H3  1  0.78243153  0.22782590  0.77217410  1
  H  H4  1  0.76204752  0.76204752  0.23795248  1
  Rh  Rh5  1  0.99193011  0.99193011  0.00806989  1
  Sr  Sr6  1  0.25125375  0.25125375  0.24874625  1
  Sr  Sr7  1  0.75125375  0.75125375  0.74874625  1
