# generated using pymatgen
data_CsPbF3
_symmetry_space_group_name_H-M   'P 1'
_cell_length_a   6.83781704
_cell_length_b   6.83781704
_cell_length_c   6.83781704
_cell_angle_alpha   61.19552101
_cell_angle_beta   61.19552101
_cell_angle_gamma   61.19552105
_symmetry_Int_Tables_number   1
_chemical_formula_structural   CsPbF3
_chemical_formula_sum   'Cs2 Pb2 F6'
_cell_volume   232.14678199
_cell_formula_units_Z   2
loop_
 _symmetry_equiv_pos_site_id
 _symmetry_equiv_pos_as_xyz
  1  'x, y, z'
loop_
 _atom_site_type_symbol
 _atom_site_label
 _atom_site_symmetry_multiplicity
 _atom_site_fract_x
 _atom_site_fract_y
 _atom_site_fract_z
 _atom_site_occupancy
  F  F0  1  0.29087111  0.77366247  0.18563107  1
  F  F1  1  0.77366247  0.18563107  0.29087111  1
  F  F2  1  0.18563107  0.29087111  0.77366247  1
  F  F3  1  0.68563107  0.27366247  0.79087111  1
  F  F4  1  0.79087111  0.68563107  0.27366247  1
  F  F5  1  0.27366247  0.79087111  0.68563107  1
  Cs  Cs6  1  0.24054085  0.24054085  0.24054085  1
  Cs  Cs7  1  0.74054085  0.74054085  0.74054085  1
  Pb  Pb8  1  0.99449451  0.99449451  0.99449451  1
  Pb  Pb9  1  0.49449451  0.49449451  0.49449451  1
