# generated using pymatgen
data_RbP(HO2)2
_symmetry_space_group_name_H-M   'P 1'
_cell_length_a   6.56492943
_cell_length_b   6.56492943
_cell_length_c   6.56492943
_cell_angle_alpha   108.94168522
_cell_angle_beta   108.94168522
_cell_angle_gamma   110.53556294
_symmetry_Int_Tables_number   1
_chemical_formula_structural   RbP(HO2)2
_chemical_formula_sum   'Rb2 P2 H4 O8'
_cell_volume   217.74873534
_cell_formula_units_Z   2
loop_
 _symmetry_equiv_pos_site_id
 _symmetry_equiv_pos_as_xyz
  1  'x, y, z'
loop_
 _atom_site_type_symbol
 _atom_site_label
 _atom_site_symmetry_multiplicity
 _atom_site_fract_x
 _atom_site_fract_y
 _atom_site_fract_z
 _atom_site_occupancy
  Rb  Rb0  1  0.25000000  0.75000000  0.50000000  1
  Rb  Rb1  1  0.50000000  0.50000000  0.00000000  1
  P  P2  1  0.75000000  0.25000000  0.50000000  1
  P  P3  1  0.00000000  0.00000000  0.00000000  1
  H  H4  1  0.74013335  0.12500000  0.11513335  1
  H  H5  1  0.00986665  0.62500000  0.88486665  1
  H  H6  1  0.37500000  0.25986665  0.38486665  1
  H  H7  1  0.87500000  0.99013335  0.61513335  1
  O  O8  1  0.72750341  0.27620860  0.26760319  1
  O  O9  1  0.74139459  0.97379140  0.95129481  1
  O  O10  1  0.00860541  0.45990022  0.73239681  1
  O  O11  1  0.02249659  0.79009978  0.04870519  1
  O  O12  1  0.54009978  0.27249659  0.54870519  1
  O  O13  1  0.02620860  0.97750341  0.76760319  1
  O  O14  1  0.72379140  0.99139459  0.45129481  1
  O  O15  1  0.20990022  0.25860541  0.23239681  1
