# generated using pymatgen
data_K4Nb8Si(P2O17)2
_symmetry_space_group_name_H-M   'P 1'
_cell_length_a   6.52508046
_cell_length_b   10.78115925
_cell_length_c   10.78115925
_cell_angle_alpha   90.00000000
_cell_angle_beta   90.00000000
_cell_angle_gamma   90.00000000
_symmetry_Int_Tables_number   1
_chemical_formula_structural   K4Nb8Si(P2O17)2
_chemical_formula_sum   'K4 Nb8 Si1 P4 O34'
_cell_volume   758.43225304
_cell_formula_units_Z   1
loop_
 _symmetry_equiv_pos_site_id
 _symmetry_equiv_pos_as_xyz
  1  'x, y, z'
loop_
 _atom_site_type_symbol
 _atom_site_label
 _atom_site_symmetry_multiplicity
 _atom_site_fract_x
 _atom_site_fract_y
 _atom_site_fract_z
 _atom_site_occupancy
  O  O0  1  0.31322994  0.16112603  0.80363432  1
  O  O1  1  0.31322994  0.83887397  0.19636568  1
  O  O2  1  0.68677006  0.80363432  0.83887397  1
  O  O3  1  0.68677006  0.19636568  0.16112603  1
  O  O4  1  0.31322994  0.83887397  0.80363432  1
  O  O5  1  0.68677006  0.80363432  0.16112603  1
  O  O6  1  0.68677006  0.19636568  0.83887397  1
  O  O7  1  0.31322994  0.16112603  0.19636568  1
  O  O8  1  0.02817808  0.82455578  0.00000000  1
  O  O9  1  0.97182192  0.00000000  0.17544422  1
  O  O10  1  0.97182192  0.00000000  0.82455578  1
  O  O11  1  0.02817808  0.17544422  0.00000000  1
  O  O12  1  0.14864449  0.50000000  0.62539493  1
  O  O13  1  0.85135551  0.62539493  0.50000000  1
  O  O14  1  0.85135551  0.37460507  0.50000000  1
  O  O15  1  0.14864449  0.50000000  0.37460507  1
  O  O16  1  0.45924106  0.37805588  0.78560548  1
  O  O17  1  0.25363621  0.50000000  0.00000000  1
  O  O18  1  0.74636379  0.00000000  0.50000000  1
  O  O19  1  0.02160551  0.36306235  0.17247646  1
  O  O20  1  0.97839449  0.17247646  0.63693765  1
  O  O21  1  0.97839449  0.82752354  0.36306235  1
  O  O22  1  0.02160551  0.63693765  0.82752354  1
  O  O23  1  0.97839449  0.17247646  0.36306235  1
  O  O24  1  0.97839449  0.82752354  0.63693765  1
  O  O25  1  0.02160551  0.63693765  0.17247646  1
  O  O26  1  0.02160551  0.36306235  0.82752354  1
  O  O27  1  0.45924106  0.37805588  0.21439452  1
  O  O28  1  0.54075894  0.21439452  0.62194412  1
  O  O29  1  0.54075894  0.78560548  0.37805588  1
  O  O30  1  0.45924106  0.62194412  0.78560548  1
  O  O31  1  0.54075894  0.21439452  0.37805588  1
  O  O32  1  0.54075894  0.78560548  0.62194412  1
  O  O33  1  0.45924106  0.62194412  0.21439452  1
  Si  Si34  1  0.00000000  0.50000000  0.50000000  1
  P  P35  1  0.50000000  0.24016275  0.75983725  1
  P  P36  1  0.50000000  0.24016275  0.24016275  1
  P  P37  1  0.50000000  0.75983725  0.24016275  1
  P  P38  1  0.50000000  0.75983725  0.75983725  1
  K  K39  1  0.50000000  0.50000000  0.50000000  1
  K  K40  1  0.30017140  0.00000000  0.50000000  1
  K  K41  1  0.69982860  0.50000000  0.00000000  1
  K  K42  1  0.50000000  0.00000000  0.00000000  1
  Nb  Nb43  1  0.00000000  0.17795447  0.82204553  1
  Nb  Nb44  1  0.00000000  0.82204553  0.17795447  1
  Nb  Nb45  1  0.00000000  0.82204553  0.82204553  1
  Nb  Nb46  1  0.00000000  0.17795447  0.17795447  1
  Nb  Nb47  1  0.20218189  0.50000000  0.81338993  1
  Nb  Nb48  1  0.79781811  0.81338993  0.50000000  1
  Nb  Nb49  1  0.79781811  0.18661007  0.50000000  1
  Nb  Nb50  1  0.20218189  0.50000000  0.18661007  1
