# generated using pymatgen
data_Li2Nb4ZnO12
_symmetry_space_group_name_H-M   'P 1'
_cell_length_a   5.61193764
_cell_length_b   11.22915942
_cell_length_c   9.92928843
_cell_angle_alpha   27.84080824
_cell_angle_beta   50.50354237
_cell_angle_gamma   55.66913817
_symmetry_Int_Tables_number   1
_chemical_formula_structural   Li2Nb4ZnO12
_chemical_formula_sum   'Li2 Nb4 Zn1 O12'
_cell_volume   225.49379478
_cell_formula_units_Z   1
loop_
 _symmetry_equiv_pos_site_id
 _symmetry_equiv_pos_as_xyz
  1  'x, y, z'
loop_
 _atom_site_type_symbol
 _atom_site_label
 _atom_site_symmetry_multiplicity
 _atom_site_fract_x
 _atom_site_fract_y
 _atom_site_fract_z
 _atom_site_occupancy
  Li  Li0  1  0.77933306  0.50332237  0.77325951  1
  Li  Li1  1  0.78182039  0.99782193  0.78725591  1
  Nb  Nb2  1  0.50396611  0.50756953  0.48746087  1
  Nb  Nb3  1  0.98059373  0.49708497  0.01284246  1
  Nb  Nb4  1  0.49479731  0.99580131  0.50499705  1
  Nb  Nb5  1  0.01785285  0.00692201  0.98520643  1
  Zn  Zn6  1  0.28783837  0.99765937  0.27404036  1
  O  O7  1  0.10835921  0.81759731  0.72200363  1
  O  O8  1  0.22327160  0.63145498  0.60247502  1
  O  O9  1  0.63354004  0.68522036  0.83993625  1
  O  O10  1  0.71382008  0.87852982  0.35348647  1
  O  O11  1  0.36490563  0.81402748  0.10469599  1
  O  O12  1  0.10241531  0.31388743  0.73639183  1
  O  O13  1  0.83658168  0.70515682  0.22037010  1
  O  O14  1  0.21613985  0.10289630  0.63188612  1
  O  O15  1  0.60172467  0.18444838  0.86079087  1
  O  O16  1  0.73317081  0.36706833  0.36924334  1
  O  O17  1  0.35360496  0.30412855  0.11099798  1
  O  O18  1  0.86717336  0.18940278  0.22356983  1
