# generated using pymatgen
data_NaTeH6O6F
_symmetry_space_group_name_H-M   'P 1'
_cell_length_a   5.70912784
_cell_length_b   5.70912784
_cell_length_c   5.70912750
_cell_angle_alpha   64.62446159
_cell_angle_beta   64.62446158
_cell_angle_gamma   64.62446014
_symmetry_Int_Tables_number   1
_chemical_formula_structural   NaTeH6O6F
_chemical_formula_sum   'Na1 Te1 H6 O6 F1'
_cell_volume   144.91236907
_cell_formula_units_Z   1
loop_
 _symmetry_equiv_pos_site_id
 _symmetry_equiv_pos_as_xyz
  1  'x, y, z'
loop_
 _atom_site_type_symbol
 _atom_site_label
 _atom_site_symmetry_multiplicity
 _atom_site_fract_x
 _atom_site_fract_y
 _atom_site_fract_z
 _atom_site_occupancy
  Na  Na0  1  0.37621846  0.37621846  0.37621846  1
  Te  Te1  1  0.00281765  0.00281765  0.00281765  1
  H  H2  1  0.95503722  0.01647644  0.45522012  1
  H  H3  1  0.01647644  0.45522012  0.95503722  1
  H  H4  1  0.45522012  0.95503722  0.01647644  1
  H  H5  1  0.32063334  0.79881962  0.61780926  1
  H  H6  1  0.79881962  0.61780926  0.32063334  1
  H  H7  1  0.61780926  0.32063334  0.79881962  1
  O  O8  1  0.82356327  0.06479550  0.35694041  1
  O  O9  1  0.06479550  0.35694041  0.82356327  1
  O  O10  1  0.35694041  0.82356327  0.06479550  1
  O  O11  1  0.15770097  0.97100578  0.63392504  1
  O  O12  1  0.97100578  0.63392504  0.15770097  1
  O  O13  1  0.63392504  0.15770097  0.97100578  1
  F  F14  1  0.55613692  0.55613692  0.55613692  1
