# generated using pymatgen
data_PICl8
_symmetry_space_group_name_H-M   'P 1'
_cell_length_a   12.29507509
_cell_length_b   12.29507544
_cell_length_c   12.29507486
_cell_angle_alpha   93.89789544
_cell_angle_beta   117.24832479
_cell_angle_gamma   118.30554777
_symmetry_Int_Tables_number   1
_chemical_formula_structural   PICl8
_chemical_formula_sum   'P4 I4 Cl32'
_cell_volume   1354.88771337
_cell_formula_units_Z   4
loop_
 _symmetry_equiv_pos_site_id
 _symmetry_equiv_pos_as_xyz
  1  'x, y, z'
loop_
 _atom_site_type_symbol
 _atom_site_label
 _atom_site_symmetry_multiplicity
 _atom_site_fract_x
 _atom_site_fract_y
 _atom_site_fract_z
 _atom_site_occupancy
  P  P0  1  0.50000000  0.74648353  0.74648353  1
  P  P1  1  1.00000000  0.25351647  0.75351647  1
  P  P2  1  0.00000000  0.74648353  0.24648353  1
  P  P3  1  0.50000000  0.25351647  0.25351647  1
  I  I4  1  0.06037733  0.31037733  0.25000000  1
  I  I5  1  0.57155656  0.82155656  0.25000000  1
  I  I6  1  0.42844344  0.17844344  0.75000000  1
  I  I7  1  0.93962267  0.68962267  0.75000000  1
  Cl  Cl8  1  0.82417273  0.24130588  0.72623718  1
  Cl  Cl9  1  0.77109790  0.02109790  0.25000000  1
  Cl  Cl10  1  0.67705307  0.91260502  0.89308890  1
  Cl  Cl11  1  0.01951611  0.28396417  0.60691110  1
  Cl  Cl12  1  0.43118886  0.33209318  0.90090432  1
  Cl  Cl13  1  0.67705307  0.28396417  0.26444805  1
  Cl  Cl14  1  0.43118886  0.03028454  0.59909568  1
  Cl  Cl15  1  0.22890210  0.97890210  0.75000000  1
  Cl  Cl16  1  0.82417273  0.59793555  0.08286685  1
  Cl  Cl17  1  0.94103839  0.53989456  0.59885617  1
  Cl  Cl18  1  0.32294693  0.71603583  0.73555195  1
  Cl  Cl19  1  0.86056025  0.30772303  0.05283721  1
  Cl  Cl20  1  0.63111668  0.38111668  0.75000000  1
  Cl  Cl21  1  0.17582727  0.75869412  0.27376282  1
  Cl  Cl22  1  0.05896161  0.15781778  0.09885617  1
  Cl  Cl23  1  0.25488582  0.30772303  0.44716279  1
  Cl  Cl24  1  0.48493129  0.40206445  0.22623718  1
  Cl  Cl25  1  0.56881114  0.96971546  0.40090432  1
  Cl  Cl26  1  0.05896161  0.46010544  0.40114383  1
  Cl  Cl27  1  0.98048389  0.08739498  0.76444805  1
  Cl  Cl28  1  0.74511418  0.69227697  0.55283721  1
  Cl  Cl29  1  0.17582727  0.40206445  0.91713315  1
  Cl  Cl30  1  0.01951611  0.91260502  0.23555195  1
  Cl  Cl31  1  0.48493129  0.75869412  0.58286685  1
  Cl  Cl32  1  0.36888332  0.61888332  0.25000000  1
  Cl  Cl33  1  0.51506871  0.59793555  0.77376282  1
  Cl  Cl34  1  0.94103839  0.84218222  0.90114383  1
  Cl  Cl35  1  0.32294693  0.08739498  0.10691110  1
  Cl  Cl36  1  0.51506871  0.24130588  0.41713315  1
  Cl  Cl37  1  0.98048389  0.71603583  0.39308890  1
  Cl  Cl38  1  0.56881114  0.66790682  0.09909568  1
  Cl  Cl39  1  0.13943975  0.69227697  0.94716279  1
