# generated using pymatgen
data_LiMn2OF3
_symmetry_space_group_name_H-M   'P 1'
_cell_length_a   6.33380539
_cell_length_b   6.33191110
_cell_length_c   6.33191110
_cell_angle_alpha   60.01979354
_cell_angle_beta   90.00000000
_cell_angle_gamma   120.00989677
_symmetry_Int_Tables_number   1
_chemical_formula_structural   LiMn2OF3
_chemical_formula_sum   'Li2 Mn4 O2 F6'
_cell_volume   179.59087204
_cell_formula_units_Z   2
loop_
 _symmetry_equiv_pos_site_id
 _symmetry_equiv_pos_as_xyz
  1  'x, y, z'
loop_
 _atom_site_type_symbol
 _atom_site_label
 _atom_site_symmetry_multiplicity
 _atom_site_fract_x
 _atom_site_fract_y
 _atom_site_fract_z
 _atom_site_occupancy
  Li  Li0  1  0.50232579  0.00465158  0.50232579  1
  Li  Li1  1  0.85795452  0.71591004  0.85795452  1
  Mn  Mn2  1  0.50291490  0.00582880  0.99106985  1
  Mn  Mn3  1  0.14435041  0.28870082  0.14435041  1
  Mn  Mn4  1  0.50291490  0.49398475  0.50291490  1
  Mn  Mn5  1  0.99106985  0.49398475  0.50291490  1
  O  O6  1  0.73010286  0.46020672  0.73010286  1
  O  O7  1  0.27323482  0.54646865  0.27323482  1
  F  F8  1  0.73717988  0.47435977  0.25395191  1
  F  F9  1  0.73717988  0.99113180  0.73717988  1
  F  F10  1  0.25395191  0.99113180  0.73717988  1
  F  F11  1  0.74131117  0.00406622  0.26275505  1
  F  F12  1  0.26275505  0.00406622  0.26275505  1
  F  F13  1  0.26275505  0.52551010  0.74131117  1
