# generated using pymatgen
data_LiGaAs2O7
_symmetry_space_group_name_H-M   'P 1'
_cell_length_a   4.77544045
_cell_length_b   5.36614194
_cell_length_c   5.36613659
_cell_angle_alpha   102.05739984
_cell_angle_beta   98.78584948
_cell_angle_gamma   98.78573401
_symmetry_Int_Tables_number   1
_chemical_formula_structural   LiGaAs2O7
_chemical_formula_sum   'Li1 Ga1 As2 O7'
_cell_volume   130.45131245
_cell_formula_units_Z   1
loop_
 _symmetry_equiv_pos_site_id
 _symmetry_equiv_pos_as_xyz
  1  'x, y, z'
loop_
 _atom_site_type_symbol
 _atom_site_label
 _atom_site_symmetry_multiplicity
 _atom_site_fract_x
 _atom_site_fract_y
 _atom_site_fract_z
 _atom_site_occupancy
  O  O0  1  0.66755790  0.35865692  0.14211490  1
  O  O1  1  0.33244265  0.85788480  0.64134334  1
  O  O2  1  0.23859676  0.61137009  0.05402952  1
  Li  Li3  1  0.49999981  0.24931023  0.75068980  1
  Ga  Ga4  1  0.50000022  0.62469361  0.37530566  1
  As  As5  1  0.90610510  0.17962099  0.25294845  1
  O  O6  1  0.76140212  0.94597088  0.38863002  1
  O  O7  1  0.77189712  0.54844420  0.66220850  1
  O  O8  1  0.22810262  0.33779175  0.45155595  1
  O  O9  1  1.00000012  0.04988439  0.95011558  1
  As  As10  1  0.09389558  0.74705216  0.82037828  1
