# generated using pymatgen
data_SiO2
_symmetry_space_group_name_H-M   'P 1'
_cell_length_a   7.36282587
_cell_length_b   7.36282565
_cell_length_c   7.05100916
_cell_angle_alpha   90.00000000
_cell_angle_beta   90.00000000
_cell_angle_gamma   120.00000103
_symmetry_Int_Tables_number   1
_chemical_formula_structural   SiO2
_chemical_formula_sum   'Si6 O12'
_cell_volume   331.03274264
_cell_formula_units_Z   6
loop_
 _symmetry_equiv_pos_site_id
 _symmetry_equiv_pos_as_xyz
  1  'x, y, z'
loop_
 _atom_site_type_symbol
 _atom_site_label
 _atom_site_symmetry_multiplicity
 _atom_site_fract_x
 _atom_site_fract_y
 _atom_site_fract_z
 _atom_site_occupancy
  Si  Si0  1  0.53436929  0.76718465  0.41666700  1
  Si  Si1  1  0.46563071  0.23281535  0.91666700  1
  Si  Si2  1  0.23281535  0.46563071  0.75000000  1
  Si  Si3  1  0.76718465  0.23281535  0.58333300  1
  Si  Si4  1  0.76718465  0.53436929  0.25000000  1
  Si  Si5  1  0.23281535  0.76718465  0.08333300  1
  O  O6  1  0.61180729  0.38819271  0.08333300  1
  O  O7  1  1.00000000  0.68450103  0.16666700  1
  O  O8  1  0.77638542  0.38819271  0.41666700  1
  O  O9  1  0.68450103  0.68450103  0.33333300  1
  O  O10  1  0.31549897  0.31549897  0.83333300  1
  O  O11  1  0.61180729  0.22361458  0.75000000  1
  O  O12  1  0.22361458  0.61180729  0.91666700  1
  O  O13  1  0.31549897  0.00000000  0.00000000  1
  O  O14  1  0.00000000  0.31549897  0.66666700  1
  O  O15  1  0.38819271  0.77638542  0.25000000  1
  O  O16  1  0.38819271  0.61180729  0.58333300  1
  O  O17  1  0.68450103  0.00000000  0.50000000  1
