# generated using pymatgen
data_LiMnPO4
_symmetry_space_group_name_H-M   'P 1'
_cell_length_a   7.08993174
_cell_length_b   8.28994004
_cell_length_c   5.29317416
_cell_angle_alpha   90.00000000
_cell_angle_beta   90.00000000
_cell_angle_gamma   90.00000000
_symmetry_Int_Tables_number   1
_chemical_formula_structural   LiMnPO4
_chemical_formula_sum   'Li4 Mn4 P4 O16'
_cell_volume   311.10688828
_cell_formula_units_Z   4
loop_
 _symmetry_equiv_pos_site_id
 _symmetry_equiv_pos_as_xyz
  1  'x, y, z'
loop_
 _atom_site_type_symbol
 _atom_site_label
 _atom_site_symmetry_multiplicity
 _atom_site_fract_x
 _atom_site_fract_y
 _atom_site_fract_z
 _atom_site_occupancy
  Li  Li0  1  0.25010247  0.55509086  0.21638493  1
  Li  Li1  1  0.24989753  0.05509086  0.71638493  1
  Li  Li2  1  0.75010247  0.94490914  0.21638493  1
  Li  Li3  1  0.74989753  0.44490914  0.71638493  1
  Mn  Mn4  1  0.97291867  0.75525705  0.73727038  1
  Mn  Mn5  1  0.52708133  0.25525705  0.23727038  1
  Mn  Mn6  1  0.47291867  0.74474295  0.73727038  1
  Mn  Mn7  1  0.02708133  0.24474295  0.23727038  1
  P  P8  1  0.21398796  0.40765709  0.72296334  1
  P  P9  1  0.28601204  0.90765709  0.22296334  1
  P  P10  1  0.71398796  0.09234291  0.72296334  1
  P  P11  1  0.78601204  0.59234291  0.22296334  1
  O  O12  1  0.02852899  0.50239450  0.68957984  1
  O  O13  1  0.27916722  0.34991470  0.45147361  1
  O  O14  1  0.18583455  0.25376540  0.88851282  1
  O  O15  1  0.36345870  0.51503226  0.85481507  1
  O  O16  1  0.13654130  0.01503226  0.35481507  1
  O  O17  1  0.31416545  0.75376540  0.38851282  1
  O  O18  1  0.22083278  0.84991470  0.95147361  1
  O  O19  1  0.47147101  0.00239450  0.18957984  1
  O  O20  1  0.52852899  0.99760550  0.68957984  1
  O  O21  1  0.77916722  0.15008530  0.45147361  1
  O  O22  1  0.68583455  0.24623460  0.88851282  1
  O  O23  1  0.86345870  0.98496774  0.85481507  1
  O  O24  1  0.63654130  0.48496774  0.35481507  1
  O  O25  1  0.81416545  0.74623460  0.38851282  1
  O  O26  1  0.72083278  0.65008530  0.95147361  1
  O  O27  1  0.97147101  0.49760550  0.18957984  1
