# generated using pymatgen
data_Al2Se3
_symmetry_space_group_name_H-M   'P 1'
_cell_length_a   6.84680495
_cell_length_b   6.89017971
_cell_length_c   7.43510619
_cell_angle_alpha   116.56580225
_cell_angle_beta   90.00000000
_cell_angle_gamma   119.79197552
_symmetry_Int_Tables_number   1
_chemical_formula_structural   Al2Se3
_chemical_formula_sum   'Al4 Se6'
_cell_volume   260.86642231
_cell_formula_units_Z   2
loop_
 _symmetry_equiv_pos_site_id
 _symmetry_equiv_pos_as_xyz
  1  'x, y, z'
loop_
 _atom_site_type_symbol
 _atom_site_label
 _atom_site_symmetry_multiplicity
 _atom_site_fract_x
 _atom_site_fract_y
 _atom_site_fract_z
 _atom_site_occupancy
  Al  Al0  1  0.63773800  0.08247758  0.12941017  1
  Al  Al1  1  0.44473958  0.08247758  0.62941017  1
  Al  Al2  1  0.26479748  0.40077778  0.11654808  1
  Al  Al3  1  0.13598030  0.40077778  0.61654808  1
  Se  Se4  1  0.90897486  0.99695116  0.98671210  1
  Se  Se5  1  0.08797630  0.99695116  0.48671210  1
  Se  Se6  1  0.58517811  0.34333804  0.01490297  1
  Se  Se7  1  0.75815992  0.34333804  0.51490297  1
  Se  Se8  1  0.24811762  0.67625545  0.00242668  1
  Se  Se9  1  0.42813783  0.67625545  0.50242668  1
