# generated using pymatgen
data_Li2Ti3ZnO8
_symmetry_space_group_name_H-M   'P 1'
_cell_length_a   8.44672259
_cell_length_b   8.44681236
_cell_length_c   8.44723423
_cell_angle_alpha   90.00009103
_cell_angle_beta   89.99997002
_cell_angle_gamma   90.00012651
_symmetry_Int_Tables_number   1
_chemical_formula_structural   Li2Ti3ZnO8
_chemical_formula_sum   'Li8 Ti12 Zn4 O32'
_cell_volume   602.69226072
_cell_formula_units_Z   4
loop_
 _symmetry_equiv_pos_site_id
 _symmetry_equiv_pos_as_xyz
  1  'x, y, z'
loop_
 _atom_site_type_symbol
 _atom_site_label
 _atom_site_symmetry_multiplicity
 _atom_site_fract_x
 _atom_site_fract_y
 _atom_site_fract_z
 _atom_site_occupancy
  Li  Li0  1  0.00213177  0.49786950  0.50212820  1
  Li  Li1  1  0.12482448  0.87518124  0.37517066  1
  Li  Li2  1  0.37518070  0.12482246  0.87517014  1
  Li  Li3  1  0.49786623  0.50213484  0.00213030  1
  Li  Li4  1  0.50213264  0.00213327  0.49787337  1
  Li  Li5  1  0.62481964  0.62481996  0.62482343  1
  Li  Li6  1  0.87518763  0.37518889  0.12482650  1
  Li  Li7  1  0.99787783  0.99786538  0.99787314  1
  Ti  Ti8  1  0.12041256  0.62733245  0.13492988  1
  Ti  Ti9  1  0.12730070  0.36505667  0.87962779  1
  Ti  Ti10  1  0.13494898  0.12039696  0.62730967  1
  Ti  Ti11  1  0.36509260  0.87964559  0.12732183  1
  Ti  Ti12  1  0.37269728  0.63494558  0.37960292  1
  Ti  Ti13  1  0.37960320  0.37270975  0.63494192  1
  Ti  Ti14  1  0.62038995  0.87269659  0.86504874  1
  Ti  Ti15  1  0.62732995  0.13496347  0.12037553  1
  Ti  Ti16  1  0.63494309  0.37961005  0.37270281  1
  Ti  Ti17  1  0.86505599  0.62039245  0.87270402  1
  Ti  Ti18  1  0.87270661  0.86504769  0.62038548  1
  Ti  Ti19  1  0.87961038  0.12730238  0.36507105  1
  Zn  Zn20  1  0.24787962  0.74787569  0.75211987  1
  Zn  Zn21  1  0.25211746  0.25213834  0.25212050  1
  Zn  Zn22  1  0.74788198  0.75211962  0.24788236  1
  Zn  Zn23  1  0.75212661  0.24787494  0.74788176  1
  O  O24  1  0.10704650  0.12723419  0.38969368  1
  O  O25  1  0.11031258  0.89295356  0.62723005  1
  O  O26  1  0.11209219  0.61209223  0.88791162  1
  O  O27  1  0.12312897  0.14443947  0.85860380  1
  O  O28  1  0.12723585  0.38969254  0.10703300  1
  O  O29  1  0.13889558  0.36110267  0.63888075  1
  O  O30  1  0.14139870  0.62313352  0.35553906  1
  O  O31  1  0.14446326  0.85860823  0.12311991  1
  O  O32  1  0.35556107  0.14139870  0.62312131  1
  O  O33  1  0.35860349  0.37687099  0.85554345  1
  O  O34  1  0.36111004  0.63889735  0.13889085  1
  O  O35  1  0.37276516  0.61031518  0.60703468  1
  O  O36  1  0.37688029  0.85556903  0.35860676  1
  O  O37  1  0.38791066  0.38791144  0.38791187  1
  O  O38  1  0.38969119  0.10706476  0.12722588  1
  O  O39  1  0.39295992  0.87276899  0.88970305  1
  O  O40  1  0.60704641  0.37276587  0.61030263  1
  O  O41  1  0.61031223  0.60704703  0.37276957  1
  O  O42  1  0.61208961  0.88791062  0.11209320  1
  O  O43  1  0.62313461  0.35557078  0.14139407  1
  O  O44  1  0.62723681  0.11031268  0.89295888  1
  O  O45  1  0.63889536  0.13889875  0.36111325  1
  O  O46  1  0.64139496  0.87687000  0.64445441  1
  O  O47  1  0.64444029  0.64139944  0.87687793  1
  O  O48  1  0.85556168  0.35860186  0.37687844  1
  O  O49  1  0.85861036  0.12313223  0.14445379  1
  O  O50  1  0.86110615  0.86110374  0.86111829  1
  O  O51  1  0.87276733  0.88968525  0.39296190  1
  O  O52  1  0.87687114  0.64443775  0.64139837  1
  O  O53  1  0.88790713  0.11209301  0.61208389  1
  O  O54  1  0.88968918  0.39295588  0.87277062  1
  O  O55  1  0.89296441  0.62723850  0.11030015  1
