# generated using pymatgen
data_LiGePCO7
_symmetry_space_group_name_H-M   'P 1'
_cell_length_a   8.62290806
_cell_length_b   6.23256120
_cell_length_c   5.06550838
_cell_angle_alpha   90.00000000
_cell_angle_beta   85.45187578
_cell_angle_gamma   90.00000000
_symmetry_Int_Tables_number   1
_chemical_formula_structural   LiGePCO7
_chemical_formula_sum   'Li2 Ge2 P2 C2 O14'
_cell_volume   271.37737048
_cell_formula_units_Z   2
loop_
 _symmetry_equiv_pos_site_id
 _symmetry_equiv_pos_as_xyz
  1  'x, y, z'
loop_
 _atom_site_type_symbol
 _atom_site_label
 _atom_site_symmetry_multiplicity
 _atom_site_fract_x
 _atom_site_fract_y
 _atom_site_fract_z
 _atom_site_occupancy
  Li  Li0  1  0.18333075  0.52509937  0.22813951  1
  Li  Li1  1  0.81666925  0.02509937  0.77186049  1
  Ge  Ge2  1  0.33733312  0.75148456  0.78879806  1
  Ge  Ge3  1  0.66266688  0.25148456  0.21120194  1
  P  P4  1  0.43106679  0.24578059  0.73474886  1
  P  P5  1  0.56893321  0.74578159  0.26525114  1
  C  C6  1  0.06569046  0.74670950  0.72526197  1
  C  C7  1  0.93430954  0.24670950  0.27473803  1
  O  O8  1  0.07215772  0.26923630  0.31385461  1
  O  O9  1  0.12616725  0.74480884  0.96100696  1
  O  O10  1  0.18275513  0.72899947  0.53229929  1
  O  O11  1  0.32647527  0.05153084  0.80392269  1
  O  O12  1  0.33030470  0.44136650  0.82040494  1
  O  O13  1  0.41511311  0.74020026  0.12650618  1
  O  O14  1  0.47717639  0.25263377  0.42932404  1
  O  O15  1  0.52282361  0.75263377  0.57067596  1
  O  O16  1  0.58488689  0.24020026  0.87349382  1
  O  O17  1  0.66969530  0.94136650  0.17959506  1
  O  O18  1  0.67352473  0.55153084  0.19607731  1
  O  O19  1  0.81724487  0.22899947  0.46770071  1
  O  O20  1  0.87383275  0.24480884  0.03899304  1
  O  O21  1  0.92784228  0.76923630  0.68614539  1
