# generated using pymatgen
data_CrF2
_symmetry_space_group_name_H-M   'P 1'
_cell_length_a   3.57632174
_cell_length_b   4.80871899
_cell_length_c   4.87015394
_cell_angle_alpha   90.00000000
_cell_angle_beta   96.62787079
_cell_angle_gamma   90.00000000
_symmetry_Int_Tables_number   1
_chemical_formula_structural   CrF2
_chemical_formula_sum   'Cr2 F4'
_cell_volume   83.19484639
_cell_formula_units_Z   2
loop_
 _symmetry_equiv_pos_site_id
 _symmetry_equiv_pos_as_xyz
  1  'x, y, z'
loop_
 _atom_site_type_symbol
 _atom_site_label
 _atom_site_symmetry_multiplicity
 _atom_site_fract_x
 _atom_site_fract_y
 _atom_site_fract_z
 _atom_site_occupancy
  Cr  Cr0  1  0.50000000  0.50000000  0.50000000  1
  Cr  Cr1  1  0.00000000  0.00000000  0.00000000  1
  F  F2  1  0.45415811  0.79947029  0.20265302  1
  F  F3  1  0.04584189  0.29947029  0.29734698  1
  F  F4  1  0.95415811  0.70052971  0.70265302  1
  F  F5  1  0.54584189  0.20052971  0.79734698  1
