# generated using pymatgen
data_PH3CS3
_symmetry_space_group_name_H-M   'P 1'
_cell_length_a   8.60428496
_cell_length_b   8.44006141
_cell_length_c   8.90653761
_cell_angle_alpha   90.00000000
_cell_angle_beta   110.66600280
_cell_angle_gamma   90.00000000
_symmetry_Int_Tables_number   1
_chemical_formula_structural   PH3CS3
_chemical_formula_sum   'P4 H12 C4 S12'
_cell_volume   605.17975765
_cell_formula_units_Z   4
loop_
 _symmetry_equiv_pos_site_id
 _symmetry_equiv_pos_as_xyz
  1  'x, y, z'
loop_
 _atom_site_type_symbol
 _atom_site_label
 _atom_site_symmetry_multiplicity
 _atom_site_fract_x
 _atom_site_fract_y
 _atom_site_fract_z
 _atom_site_occupancy
  P  P0  1  0.05765366  0.57894783  0.65740370  1
  P  P1  1  0.55765366  0.92105217  0.65740370  1
  P  P2  1  0.94234634  0.42105217  0.34259630  1
  P  P3  1  0.44234634  0.07894783  0.34259630  1
  H  H4  1  0.68340047  0.28885011  0.71548344  1
  H  H5  1  0.97559110  0.21193094  0.71931674  1
  H  H6  1  0.81659953  0.78885011  0.28451656  1
  H  H7  1  0.18340047  0.21114989  0.71548344  1
  H  H8  1  0.35222291  0.66220411  0.10332508  1
  H  H9  1  0.85222291  0.83779589  0.10332508  1
  H  H10  1  0.64777709  0.33779589  0.89667492  1
  H  H11  1  0.47559110  0.28806906  0.71931674  1
  H  H12  1  0.02440890  0.78806906  0.28068326  1
  H  H13  1  0.31659953  0.71114989  0.28451656  1
  H  H14  1  0.14777709  0.16220411  0.89667492  1
  H  H15  1  0.52440890  0.71193094  0.28068326  1
  C  C16  1  0.60666793  0.26384056  0.78822936  1
  C  C17  1  0.89333207  0.76384056  0.21177064  1
  C  C18  1  0.39333207  0.73615944  0.21177064  1
  C  C19  1  0.10666793  0.23615944  0.78822936  1
  S  S20  1  0.58055258  0.70173209  0.72403050  1
  S  S21  1  0.08055258  0.79826791  0.72403050  1
  S  S22  1  0.13464438  0.43815133  0.86190533  1
  S  S23  1  0.36535562  0.93815133  0.13809467  1
  S  S24  1  0.91944742  0.20173209  0.27596950  1
  S  S25  1  0.18094154  0.50115341  0.49893922  1
  S  S26  1  0.86535562  0.56184867  0.13809467  1
  S  S27  1  0.68094154  0.99884659  0.49893922  1
  S  S28  1  0.81905846  0.49884659  0.50106078  1
  S  S29  1  0.31905846  0.00115341  0.50106078  1
  S  S30  1  0.63464438  0.06184867  0.86190533  1
  S  S31  1  0.41944742  0.29826791  0.27596950  1
