# generated using pymatgen
data_Bi14Te13S8
_symmetry_space_group_name_H-M   'P 1'
_cell_length_a   12.39169773
_cell_length_b   12.39169814
_cell_length_c   12.39169743
_cell_angle_alpha   54.33466448
_cell_angle_beta   54.33466331
_cell_angle_gamma   54.33466508
_symmetry_Int_Tables_number   1
_chemical_formula_structural   Bi14Te13S8
_chemical_formula_sum   'Bi14 Te13 S8'
_cell_volume   1167.65849765
_cell_formula_units_Z   1
loop_
 _symmetry_equiv_pos_site_id
 _symmetry_equiv_pos_as_xyz
  1  'x, y, z'
loop_
 _atom_site_type_symbol
 _atom_site_label
 _atom_site_symmetry_multiplicity
 _atom_site_fract_x
 _atom_site_fract_y
 _atom_site_fract_z
 _atom_site_occupancy
  Bi  Bi0  1  0.39092749  0.39092749  0.39092749  1
  Bi  Bi1  1  0.25543127  0.11218536  0.81103149  1
  Bi  Bi2  1  0.60907251  0.60907251  0.60907251  1
  Bi  Bi3  1  0.95103894  0.53537731  0.67931602  1
  Bi  Bi4  1  0.32068398  0.04896106  0.46462269  1
  Bi  Bi5  1  0.81103149  0.25543127  0.11218536  1
  Bi  Bi6  1  0.74456873  0.88781464  0.18896851  1
  Bi  Bi7  1  0.04896106  0.46462269  0.32068398  1
  Bi  Bi8  1  0.67931602  0.95103894  0.53537731  1
  Bi  Bi9  1  0.18896851  0.74456873  0.88781464  1
  Bi  Bi10  1  0.46462269  0.32068398  0.04896106  1
  Bi  Bi11  1  0.11218536  0.81103149  0.25543127  1
  Bi  Bi12  1  0.53537731  0.67931602  0.95103894  1
  Bi  Bi13  1  0.88781464  0.18896851  0.74456873  1
  Te  Te14  1  0.37121209  0.48992186  0.79324678  1
  Te  Te15  1  0.92500596  0.06176337  0.35508532  1
  Te  Te16  1  0.93823663  0.64491468  0.07499404  1
  Te  Te17  1  0.51007814  0.20675322  0.62878791  1
  Te  Te18  1  0.79324678  0.37121209  0.48992186  1
  Te  Te19  1  0.20675322  0.62878791  0.51007814  1
  Te  Te20  1  0.00000000  0.00000000  0.00000000  1
  Te  Te21  1  0.64491468  0.07499404  0.93823663  1
  Te  Te22  1  0.48992186  0.79324678  0.37121209  1
  Te  Te23  1  0.07499404  0.93823663  0.64491468  1
  Te  Te24  1  0.35508532  0.92500596  0.06176337  1
  Te  Te25  1  0.62878791  0.51007814  0.20675322  1
  Te  Te26  1  0.06176337  0.35508532  0.92500596  1
  S  S27  1  0.29195865  0.57199866  0.13828739  1
  S  S28  1  0.76565018  0.76565018  0.76565018  1
  S  S29  1  0.57199866  0.13828739  0.29195865  1
  S  S30  1  0.70804135  0.42800134  0.86171261  1
  S  S31  1  0.42800134  0.86171261  0.70804135  1
  S  S32  1  0.13828739  0.29195865  0.57199866  1
  S  S33  1  0.86171261  0.70804135  0.42800134  1
  S  S34  1  0.23434982  0.23434982  0.23434982  1
