# generated using pymatgen
data_Ba2Sb2O5
_symmetry_space_group_name_H-M   'P 1'
_cell_length_a   8.20429347
_cell_length_b   14.73678869
_cell_length_c   6.46081814
_cell_angle_alpha   90.00000000
_cell_angle_beta   90.00000000
_cell_angle_gamma   90.00000000
_symmetry_Int_Tables_number   1
_chemical_formula_structural   Ba2Sb2O5
_chemical_formula_sum   'Ba8 Sb8 O20'
_cell_volume   781.14482452
_cell_formula_units_Z   4
loop_
 _symmetry_equiv_pos_site_id
 _symmetry_equiv_pos_as_xyz
  1  'x, y, z'
loop_
 _atom_site_type_symbol
 _atom_site_label
 _atom_site_symmetry_multiplicity
 _atom_site_fract_x
 _atom_site_fract_y
 _atom_site_fract_z
 _atom_site_occupancy
  Ba  Ba0  1  0.00040209  0.32310050  0.25000000  1
  Ba  Ba1  1  0.99986924  0.68104622  0.75000000  1
  Ba  Ba2  1  0.25013076  0.18104622  0.75000000  1
  Ba  Ba3  1  0.24959791  0.82310050  0.25000000  1
  Ba  Ba4  1  0.49986924  0.31895378  0.25000000  1
  Ba  Ba5  1  0.50040209  0.67689950  0.75000000  1
  Ba  Ba6  1  0.75013076  0.81895378  0.25000000  1
  Ba  Ba7  1  0.74959791  0.17689950  0.75000000  1
  Sb  Sb8  1  0.01008531  0.06934706  0.25000000  1
  Sb  Sb9  1  0.98978586  0.93178300  0.75000000  1
  Sb  Sb10  1  0.23991469  0.56934706  0.25000000  1
  Sb  Sb11  1  0.26021414  0.43178300  0.75000000  1
  Sb  Sb12  1  0.48978586  0.06821700  0.25000000  1
  Sb  Sb13  1  0.51008531  0.93065294  0.75000000  1
  Sb  Sb14  1  0.76021414  0.56821700  0.25000000  1
  Sb  Sb15  1  0.73991469  0.43065294  0.75000000  1
  O  O16  1  0.00023098  0.53012717  0.25000000  1
  O  O17  1  0.00486409  0.15831592  0.02541449  1
  O  O18  1  0.00486409  0.15831592  0.47458551  1
  O  O19  1  0.99530539  0.84261170  0.52588265  1
  O  O20  1  0.99530539  0.84261170  0.97411735  1
  O  O21  1  0.24513591  0.65831592  0.47458551  1
  O  O22  1  0.24976902  0.03012717  0.25000000  1
  O  O23  1  0.25469461  0.34261170  0.52588265  1
  O  O24  1  0.24513591  0.65831592  0.02541449  1
  O  O25  1  0.25469461  0.34261170  0.97411735  1
  O  O26  1  0.50023098  0.46987283  0.75000000  1
  O  O27  1  0.50486409  0.84168408  0.52541449  1
  O  O28  1  0.50486409  0.84168408  0.97458551  1
  O  O29  1  0.49530539  0.15738830  0.02588265  1
  O  O30  1  0.49530539  0.15738830  0.47411735  1
  O  O31  1  0.74976902  0.96987283  0.75000000  1
  O  O32  1  0.75469461  0.65738830  0.02588265  1
  O  O33  1  0.75469461  0.65738830  0.47411735  1
  O  O34  1  0.74513591  0.34168408  0.52541449  1
  O  O35  1  0.74513591  0.34168408  0.97458551  1
