# generated using pymatgen
data_Mn(SbO3)2
_symmetry_space_group_name_H-M   'P 1'
_cell_length_a   8.94801812
_cell_length_b   8.94801812
_cell_length_c   4.80551702
_cell_angle_alpha   90.00000000
_cell_angle_beta   90.00000000
_cell_angle_gamma   119.99999999
_symmetry_Int_Tables_number   1
_chemical_formula_structural   Mn(SbO3)2
_chemical_formula_sum   'Mn3 Sb6 O18'
_cell_volume   333.21493717
_cell_formula_units_Z   3
loop_
 _symmetry_equiv_pos_site_id
 _symmetry_equiv_pos_as_xyz
  1  'x, y, z'
loop_
 _atom_site_type_symbol
 _atom_site_label
 _atom_site_symmetry_multiplicity
 _atom_site_fract_x
 _atom_site_fract_y
 _atom_site_fract_z
 _atom_site_occupancy
  O  O0  1  0.77899701  0.22461125  0.71721514  1
  O  O1  1  0.77538862  0.55438555  0.71721514  1
  O  O2  1  0.44561384  0.22100297  0.71721514  1
  O  O3  1  0.55438578  0.77538852  0.28278410  1
  O  O4  1  0.22100309  0.44561422  0.28278410  1
  O  O5  1  0.22461090  0.77899680  0.28278410  1
  O  O6  1  0.58909360  0.47197566  0.26922569  1
  O  O7  1  0.52802474  0.11711862  0.26922569  1
  O  O8  1  0.88288112  0.41090550  0.26922569  1
  O  O9  1  0.10329551  0.88975191  0.76382582  1
  O  O10  1  0.11024823  0.21354299  0.76382582  1
  O  O11  1  0.78645603  0.89670465  0.76382582  1
  O  O12  1  0.21354334  0.11024786  0.23617551  1
  O  O13  1  0.11711862  0.52802541  0.73077354  1
  O  O14  1  0.88975113  0.10329512  0.23617551  1
  O  O15  1  0.47197565  0.58909427  0.73077354  1
  O  O16  1  0.41090615  0.88288115  0.73077354  1
  O  O17  1  0.89670499  0.78645679  0.23617551  1
  Mn  Mn18  1  0.36683754  0.36683779  0.00000000  1
  Mn  Mn19  1  0.99999977  0.63316198  0.00000000  1
  Mn  Mn20  1  0.63316243  0.00000000  0.00000000  1
  Sb  Sb21  1  0.99999986  0.30498789  0.50000066  1
  Sb  Sb22  1  0.69501172  0.69501188  0.50000066  1
  Sb  Sb23  1  0.30498817  0.00000000  0.50000066  1
  Sb  Sb24  1  0.66666670  0.33333369  0.49090588  1
  Sb  Sb25  1  0.33333304  0.66666608  0.50909336  1
  Sb  Sb26  1  0.00000000  0.00000000  0.00000000  1
