# generated using pymatgen
data_LiGaSe2
_symmetry_space_group_name_H-M   'P 1'
_cell_length_a   6.66225702
_cell_length_b   6.96638652
_cell_length_c   8.36314263
_cell_angle_alpha   90.00000000
_cell_angle_beta   90.00000000
_cell_angle_gamma   90.00000000
_symmetry_Int_Tables_number   1
_chemical_formula_structural   LiGaSe2
_chemical_formula_sum   'Li4 Ga4 Se8'
_cell_volume   388.14898397
_cell_formula_units_Z   4
loop_
 _symmetry_equiv_pos_site_id
 _symmetry_equiv_pos_as_xyz
  1  'x, y, z'
loop_
 _atom_site_type_symbol
 _atom_site_label
 _atom_site_symmetry_multiplicity
 _atom_site_fract_x
 _atom_site_fract_y
 _atom_site_fract_z
 _atom_site_occupancy
  Li  Li0  1  0.11921858  0.91122261  0.62164327  1
  Li  Li1  1  0.61921858  0.08877739  0.37835673  1
  Li  Li2  1  0.61921858  0.58877739  0.12164327  1
  Li  Li3  1  0.11921858  0.41122261  0.87835673  1
  Ga  Ga4  1  0.62239633  0.57325873  0.62612622  1
  Ga  Ga5  1  0.12239633  0.42674127  0.37387378  1
  Ga  Ga6  1  0.12239633  0.92674127  0.12612622  1
  Ga  Ga7  1  0.62239633  0.07325873  0.87387378  1
  Se  Se8  1  0.50591665  0.90690687  0.63371532  1
  Se  Se9  1  0.00591665  0.09309313  0.36628468  1
  Se  Se10  1  0.00591665  0.59309313  0.13371532  1
  Se  Se11  1  0.50591665  0.40690687  0.86628468  1
  Se  Se12  1  0.99046845  0.06636521  0.88077481  1
  Se  Se13  1  0.49046845  0.93363479  0.11922519  1
  Se  Se14  1  0.49046845  0.43363479  0.38077481  1
  Se  Se15  1  0.99046845  0.56636521  0.61922519  1
