# generated using pymatgen
data_LiH3O2
_symmetry_space_group_name_H-M   'P 1'
_cell_length_a   5.67980572
_cell_length_b   5.57748879
_cell_length_c   3.25001875
_cell_angle_alpha   75.08132986
_cell_angle_beta   104.52757683
_cell_angle_gamma   83.92703002
_symmetry_Int_Tables_number   1
_chemical_formula_structural   LiH3O2
_chemical_formula_sum   'Li2 H6 O4'
_cell_volume   94.69517191
_cell_formula_units_Z   2
loop_
 _symmetry_equiv_pos_site_id
 _symmetry_equiv_pos_as_xyz
  1  'x, y, z'
loop_
 _atom_site_type_symbol
 _atom_site_label
 _atom_site_symmetry_multiplicity
 _atom_site_fract_x
 _atom_site_fract_y
 _atom_site_fract_z
 _atom_site_occupancy
  Li  Li0  1  0.34785103  0.33415698  0.50583365  1
  Li  Li1  1  0.64771032  0.64810775  0.49374311  1
  H  H2  1  0.01934896  0.24285315  0.85959853  1
  H  H3  1  0.23924276  0.00864757  0.14426538  1
  H  H4  1  0.75666316  0.97233425  0.85422272  1
  H  H5  1  0.97785578  0.74253006  0.14133753  1
  H  H6  1  0.73374863  0.26214886  0.32976160  1
  H  H7  1  0.26191035  0.72719992  0.66926246  1
  O  O8  1  0.20483558  0.20077707  0.00127911  1
  O  O9  1  0.79196638  0.78121257  0.99704190  1
  O  O10  1  0.71234918  0.27393073  0.61303574  1
  O  O11  1  0.28133387  0.70886210  0.38827427  1
