# generated using pymatgen
data_Ba(VN2)2
_symmetry_space_group_name_H-M   'P 1'
_cell_length_a   10.93607594
_cell_length_b   10.93607594
_cell_length_c   10.93607594
_cell_angle_alpha   90.00000000
_cell_angle_beta   90.00000000
_cell_angle_gamma   90.00000000
_symmetry_Int_Tables_number   1
_chemical_formula_structural   Ba(VN2)2
_chemical_formula_sum   'Ba12 V24 N48'
_cell_volume   1307.93015243
_cell_formula_units_Z   12
loop_
 _symmetry_equiv_pos_site_id
 _symmetry_equiv_pos_as_xyz
  1  'x, y, z'
loop_
 _atom_site_type_symbol
 _atom_site_label
 _atom_site_symmetry_multiplicity
 _atom_site_fract_x
 _atom_site_fract_y
 _atom_site_fract_z
 _atom_site_occupancy
  Ba  Ba0  1  0.50000000  0.50000000  0.00000000  1
  Ba  Ba1  1  0.50000000  0.00000000  0.50000000  1
  Ba  Ba2  1  0.00000000  0.50000000  0.50000000  1
  Ba  Ba3  1  0.00000000  0.00000000  0.00000000  1
  Ba  Ba4  1  0.12530045  0.87469955  0.37469955  1
  Ba  Ba5  1  0.87469955  0.37469955  0.12530045  1
  Ba  Ba6  1  0.37469955  0.12530045  0.87469955  1
  Ba  Ba7  1  0.62530045  0.62530045  0.62530045  1
  Ba  Ba8  1  0.87469955  0.12530045  0.62530045  1
  Ba  Ba9  1  0.12530045  0.62530045  0.87469955  1
  Ba  Ba10  1  0.62530045  0.87469955  0.12530045  1
  Ba  Ba11  1  0.37469955  0.37469955  0.37469955  1
  V  V12  1  0.38698493  0.69349912  0.34439907  1
  V  V13  1  0.61301507  0.19349912  0.15560093  1
  V  V14  1  0.11301507  0.30650088  0.84439907  1
  V  V15  1  0.88698493  0.80650088  0.65560093  1
  V  V16  1  0.34439907  0.38698493  0.69349912  1
  V  V17  1  0.15560093  0.61301507  0.19349912  1
  V  V18  1  0.84439907  0.11301507  0.30650088  1
  V  V19  1  0.65560093  0.88698493  0.80650088  1
  V  V20  1  0.69349912  0.34439907  0.38698493  1
  V  V21  1  0.19349912  0.15560093  0.61301507  1
  V  V22  1  0.30650088  0.84439907  0.11301507  1
  V  V23  1  0.80650088  0.65560093  0.88698493  1
  V  V24  1  0.61301507  0.30650088  0.65560093  1
  V  V25  1  0.38698493  0.80650088  0.84439907  1
  V  V26  1  0.88698493  0.69349912  0.15560093  1
  V  V27  1  0.11301507  0.19349912  0.34439907  1
  V  V28  1  0.65560093  0.61301507  0.30650088  1
  V  V29  1  0.84439907  0.38698493  0.80650088  1
  V  V30  1  0.15560093  0.88698493  0.69349912  1
  V  V31  1  0.34439907  0.11301507  0.19349912  1
  V  V32  1  0.30650088  0.65560093  0.61301507  1
  V  V33  1  0.80650088  0.84439907  0.38698493  1
  V  V34  1  0.69349912  0.15560093  0.88698493  1
  V  V35  1  0.19349912  0.34439907  0.11301507  1
  N  N36  1  0.37875859  0.83816183  0.26120435  1
  N  N37  1  0.62124141  0.33816183  0.23879565  1
  N  N38  1  0.12124141  0.16183817  0.76120435  1
  N  N39  1  0.87875859  0.66183817  0.73879565  1
  N  N40  1  0.26120435  0.37875859  0.83816183  1
  N  N41  1  0.23879565  0.62124141  0.33816183  1
  N  N42  1  0.76120435  0.12124141  0.16183817  1
  N  N43  1  0.73879565  0.87875859  0.66183817  1
  N  N44  1  0.83816183  0.26120435  0.37875859  1
  N  N45  1  0.33816183  0.23879565  0.62124141  1
  N  N46  1  0.16183817  0.76120435  0.12124141  1
  N  N47  1  0.66183817  0.73879565  0.87875859  1
  N  N48  1  0.62124141  0.16183817  0.73879565  1
  N  N49  1  0.37875859  0.66183817  0.76120435  1
  N  N50  1  0.87875859  0.83816183  0.23879565  1
  N  N51  1  0.12124141  0.33816183  0.26120435  1
  N  N52  1  0.73879565  0.62124141  0.16183817  1
  N  N53  1  0.76120435  0.37875859  0.66183817  1
  N  N54  1  0.23879565  0.87875859  0.83816183  1
  N  N55  1  0.26120435  0.12124141  0.33816183  1
  N  N56  1  0.16183817  0.73879565  0.62124141  1
  N  N57  1  0.66183817  0.76120435  0.37875859  1
  N  N58  1  0.83816183  0.23879565  0.87875859  1
  N  N59  1  0.33816183  0.26120435  0.12124141  1
  N  N60  1  0.41364752  0.72363979  0.50613714  1
  N  N61  1  0.58635248  0.22363979  0.99386286  1
  N  N62  1  0.08635248  0.27636021  0.00613714  1
  N  N63  1  0.91364752  0.77636021  0.49386286  1
  N  N64  1  0.50613714  0.41364752  0.72363979  1
  N  N65  1  0.99386286  0.58635248  0.22363979  1
  N  N66  1  0.00613714  0.08635248  0.27636021  1
  N  N67  1  0.49386286  0.91364752  0.77636021  1
  N  N68  1  0.72363979  0.50613714  0.41364752  1
  N  N69  1  0.22363979  0.99386286  0.58635248  1
  N  N70  1  0.27636021  0.00613714  0.08635248  1
  N  N71  1  0.77636021  0.49386286  0.91364752  1
  N  N72  1  0.58635248  0.27636021  0.49386286  1
  N  N73  1  0.41364752  0.77636021  0.00613714  1
  N  N74  1  0.91364752  0.72363979  0.99386286  1
  N  N75  1  0.08635248  0.22363979  0.50613714  1
  N  N76  1  0.49386286  0.58635248  0.27636021  1
  N  N77  1  0.00613714  0.41364752  0.77636021  1
  N  N78  1  0.99386286  0.91364752  0.72363979  1
  N  N79  1  0.50613714  0.08635248  0.22363979  1
  N  N80  1  0.27636021  0.49386286  0.58635248  1
  N  N81  1  0.77636021  0.00613714  0.41364752  1
  N  N82  1  0.72363979  0.99386286  0.91364752  1
  N  N83  1  0.22363979  0.50613714  0.08635248  1
