# generated using pymatgen
data_Hf2N2O
_symmetry_space_group_name_H-M   'P 1'
_cell_length_a   5.40878101
_cell_length_b   6.98163629
_cell_length_c   6.45938291
_cell_angle_alpha   76.71876512
_cell_angle_beta   89.91292158
_cell_angle_gamma   89.68563397
_symmetry_Int_Tables_number   1
_chemical_formula_structural   Hf2N2O
_chemical_formula_sum   'Hf8 N8 O4'
_cell_volume   237.39270384
_cell_formula_units_Z   4
loop_
 _symmetry_equiv_pos_site_id
 _symmetry_equiv_pos_as_xyz
  1  'x, y, z'
loop_
 _atom_site_type_symbol
 _atom_site_label
 _atom_site_symmetry_multiplicity
 _atom_site_fract_x
 _atom_site_fract_y
 _atom_site_fract_z
 _atom_site_occupancy
  Hf  Hf0  1  0.28873040  0.84687120  0.13027891  1
  Hf  Hf1  1  0.29909969  0.84737653  0.62838320  1
  Hf  Hf2  1  0.80290362  0.65077751  0.67802656  1
  Hf  Hf3  1  0.78632258  0.65791910  0.17824689  1
  Hf  Hf4  1  0.22325413  0.38476517  0.49667167  1
  Hf  Hf5  1  0.24009493  0.39884240  0.99106826  1
  Hf  Hf6  1  0.68982136  0.13097076  0.30761124  1
  Hf  Hf7  1  0.72518505  0.10325665  0.81601341  1
  N  N8  1  0.57201466  0.81974436  0.38488366  1
  N  N9  1  0.57772832  0.80451606  0.89017776  1
  N  N10  1  0.07373458  0.68643506  0.41920941  1
  N  N11  1  0.07525471  0.69517340  0.91730084  1
  N  N12  1  0.47340447  0.47536643  0.22696443  1
  N  N13  1  0.95650979  0.36181376  0.75587751  1
  N  N14  1  0.44978574  0.13399081  0.04792666  1
  N  N15  1  0.45689559  0.13328077  0.56817211  1
  O  O16  1  0.44601693  0.50759244  0.70963204  1
  O  O17  1  0.97229575  0.35799280  0.24830375  1
  O  O18  1  0.93879798  0.99601626  0.10035743  1
  O  O19  1  0.95214871  0.00729954  0.58112626  1
