# generated using pymatgen
data_VO2F
_symmetry_space_group_name_H-M   'P 1'
_cell_length_a   3.18848816
_cell_length_b   4.24115856
_cell_length_c   5.81333984
_cell_angle_alpha   66.02703838
_cell_angle_beta   73.49533793
_cell_angle_gamma   90.17721784
_symmetry_Int_Tables_number   1
_chemical_formula_structural   VO2F
_chemical_formula_sum   'V1 O2 F1'
_cell_volume   68.23886823
_cell_formula_units_Z   1
loop_
 _symmetry_equiv_pos_site_id
 _symmetry_equiv_pos_as_xyz
  1  'x, y, z'
loop_
 _atom_site_type_symbol
 _atom_site_label
 _atom_site_symmetry_multiplicity
 _atom_site_fract_x
 _atom_site_fract_y
 _atom_site_fract_z
 _atom_site_occupancy
  V  V0  1  0.98699920  0.06218565  0.96847523  1
  O  O1  1  0.99084198  0.44573415  0.96623909  1
  O  O2  1  0.41120553  0.87504459  0.11390541  1
  F  F3  1  0.16095330  0.15842461  0.62780027  1
