# generated using pymatgen
data_Ca3(SiAs2)2
_symmetry_space_group_name_H-M   'P 1'
_cell_length_a   7.19163275
_cell_length_b   7.32646331
_cell_length_c   17.79863649
_cell_angle_alpha   90.00000000
_cell_angle_beta   90.00000000
_cell_angle_gamma   111.65119121
_symmetry_Int_Tables_number   1
_chemical_formula_structural   Ca3(SiAs2)2
_chemical_formula_sum   'Ca12 Si8 As16'
_cell_volume   871.63235569
_cell_formula_units_Z   4
loop_
 _symmetry_equiv_pos_site_id
 _symmetry_equiv_pos_as_xyz
  1  'x, y, z'
loop_
 _atom_site_type_symbol
 _atom_site_label
 _atom_site_symmetry_multiplicity
 _atom_site_fract_x
 _atom_site_fract_y
 _atom_site_fract_z
 _atom_site_occupancy
  Ca  Ca0  1  0.98784010  0.74506930  0.94050918  1
  Ca  Ca1  1  0.51215990  0.25493070  0.44050918  1
  Ca  Ca2  1  0.01215990  0.25493070  0.05949082  1
  Ca  Ca3  1  0.48784010  0.74506930  0.55949082  1
  Ca  Ca4  1  0.50236596  0.26151562  0.93999019  1
  Ca  Ca5  1  0.99763404  0.73848438  0.43999019  1
  Ca  Ca6  1  0.49763404  0.73848438  0.06000981  1
  Ca  Ca7  1  0.00236596  0.26151562  0.56000981  1
  Ca  Ca8  1  0.48646226  0.78192508  0.81609894  1
  Ca  Ca9  1  0.01353774  0.21807492  0.31609894  1
  Ca  Ca10  1  0.51353774  0.21807492  0.18390106  1
  Ca  Ca11  1  0.98646226  0.78192508  0.68390106  1
  Si  Si12  1  0.42053121  0.31631979  0.74042896  1
  Si  Si13  1  0.07946879  0.68368021  0.24042896  1
  Si  Si14  1  0.57946879  0.68368021  0.25957104  1
  Si  Si15  1  0.92053121  0.31631979  0.75957104  1
  Si  Si16  1  0.47041935  0.78763591  0.37024216  1
  Si  Si17  1  0.02958065  0.21236409  0.87024216  1
  Si  Si18  1  0.52958065  0.21236409  0.62975784  1
  Si  Si19  1  0.97041935  0.78763591  0.12975784  1
  As  As20  1  0.72941161  0.50575959  0.80335891  1
  As  As21  1  0.77058839  0.49424041  0.30335891  1
  As  As22  1  0.27058839  0.49424041  0.19664109  1
  As  As23  1  0.22941161  0.50575959  0.69664109  1
  As  As24  1  0.72195132  0.03722292  0.68705650  1
  As  As25  1  0.77804868  0.96277708  0.18705650  1
  As  As26  1  0.27804868  0.96277708  0.31294350  1
  As  As27  1  0.22195132  0.03722292  0.81294350  1
  As  As28  1  0.75061414  0.00729021  0.93864958  1
  As  As29  1  0.74938586  0.99270979  0.43864958  1
  As  As30  1  0.24938586  0.99270979  0.06135042  1
  As  As31  1  0.25061414  0.00729021  0.56135042  1
  As  As32  1  0.24274841  0.49941221  0.93197407  1
  As  As33  1  0.25725159  0.50058779  0.43197407  1
  As  As34  1  0.75725159  0.50058779  0.06802593  1
  As  As35  1  0.74274841  0.49941221  0.56802593  1
