# generated using pymatgen
data_Al3NO3
_symmetry_space_group_name_H-M   'P 1'
_cell_length_a   5.71009591
_cell_length_b   11.39114864
_cell_length_c   9.88446820
_cell_angle_alpha   29.80381601
_cell_angle_beta   54.71221377
_cell_angle_gamma   59.91562539
_symmetry_Int_Tables_number   1
_chemical_formula_structural   Al3NO3
_chemical_formula_sum   'Al12 N4 O12'
_cell_volume   260.84185646
_cell_formula_units_Z   4
loop_
 _symmetry_equiv_pos_site_id
 _symmetry_equiv_pos_as_xyz
  1  'x, y, z'
loop_
 _atom_site_type_symbol
 _atom_site_label
 _atom_site_symmetry_multiplicity
 _atom_site_fract_x
 _atom_site_fract_y
 _atom_site_fract_z
 _atom_site_occupancy
  Al  Al0  1  0.01562029  0.00000000  0.99225055  1
  Al  Al1  1  -0.00012138  0.50000000  0.99225055  1
  Al  Al2  1  0.13197676  0.00000000  0.61740425  1
  Al  Al3  1  0.23437971  0.50000000  0.25774945  1
  Al  Al4  1  0.62500000  0.25000000  0.12500000  1
  Al  Al5  1  0.61678526  0.00000000  0.63259575  1
  Al  Al6  1  0.11802324  0.50000000  0.63259575  1
  Al  Al7  1  0.62500000  0.25000000  0.62500000  1
  Al  Al8  1  0.62500000  0.75000000  0.12500000  1
  Al  Al9  1  0.25012138  0.00000000  0.25774945  1
  Al  Al10  1  0.63321474  0.50000000  0.61740425  1
  Al  Al11  1  0.62500000  0.75000000  0.62500000  1
  N  N12  1  0.39050536  0.00000000  0.38332682  1
  N  N13  1  0.40715900  0.00000000  0.86667318  1
  N  N14  1  0.84284100  0.50000000  0.38332682  1
  N  N15  1  0.85949464  0.50000000  0.86667318  1
  O  O16  1  0.38009945  0.23682541  0.38472303  1
  O  O17  1  0.85335151  0.00000000  0.38763330  1
  O  O18  1  0.37138188  0.50000000  0.38763330  1
  O  O19  1  0.87319634  0.23682541  0.39162614  1
  O  O20  1  0.37680366  0.26317459  0.85837386  1
  O  O21  1  0.37680366  0.73682541  0.38472303  1
  O  O22  1  0.87861812  0.00000000  0.86236670  1
  O  O23  1  0.39664849  0.50000000  0.86236670  1
  O  O24  1  0.86990055  0.73682541  0.39162614  1
  O  O25  1  0.86990055  0.26317459  0.86527697  1
  O  O26  1  0.38009945  0.76317459  0.85837386  1
  O  O27  1  0.87319634  0.76317459  0.86527697  1
