# generated using pymatgen
data_Li3CrSiO5
_symmetry_space_group_name_H-M   'P 1'
_cell_length_a   5.00179956
_cell_length_b   5.77418924
_cell_length_c   6.45947330
_cell_angle_alpha   104.46726315
_cell_angle_beta   97.79486381
_cell_angle_gamma   106.47007520
_symmetry_Int_Tables_number   1
_chemical_formula_structural   Li3CrSiO5
_chemical_formula_sum   'Li6 Cr2 Si2 O10'
_cell_volume   168.89431710
_cell_formula_units_Z   2
loop_
 _symmetry_equiv_pos_site_id
 _symmetry_equiv_pos_as_xyz
  1  'x, y, z'
loop_
 _atom_site_type_symbol
 _atom_site_label
 _atom_site_symmetry_multiplicity
 _atom_site_fract_x
 _atom_site_fract_y
 _atom_site_fract_z
 _atom_site_occupancy
  Li  Li0  1  0.79984378  0.60246892  0.59787620  1
  Li  Li1  1  0.60000000  0.20000000  0.20000000  1
  Li  Li2  1  0.60000000  0.70000000  0.20000000  1
  Li  Li3  1  0.40015622  0.79753108  0.80212380  1
  Li  Li4  1  0.20828904  0.40102029  0.38760904  1
  Li  Li5  1  0.99171096  0.99897971  0.01239096  1
  Cr  Cr6  1  0.79764477  0.09348692  0.59461230  1
  Cr  Cr7  1  0.40235523  0.30651308  0.80538770  1
  Si  Si8  1  0.19586575  0.89155565  0.39221165  1
  Si  Si9  1  0.00413425  0.50844435  0.00778835  1
  O  O10  1  0.93466908  0.03610882  0.32086150  1
  O  O11  1  0.72918116  0.62600275  0.90560503  1
  O  O12  1  0.93666381  0.57235134  0.28346452  1
  O  O13  1  0.72254105  0.18792824  0.90762964  1
  O  O14  1  0.47745895  0.21207176  0.49237036  1
  O  O15  1  0.47081884  0.77399725  0.49439497  1
  O  O16  1  0.26533092  0.36389118  0.07913850  1
  O  O17  1  0.26333619  0.82764866  0.11653548  1
  O  O18  1  0.09265663  0.44937846  0.73436830  1
  O  O19  1  0.10734337  0.95062154  0.66563170  1
