# generated using pymatgen
data_LiTaN2
_symmetry_space_group_name_H-M   'P 1'
_cell_length_a   4.20300482
_cell_length_b   8.37450724
_cell_length_c   18.63613995
_cell_angle_alpha   90.00000000
_cell_angle_beta   90.00000000
_cell_angle_gamma   89.99361780
_symmetry_Int_Tables_number   1
_chemical_formula_structural   LiTaN2
_chemical_formula_sum   'Li16 Ta16 N32'
_cell_volume   655.95660688
_cell_formula_units_Z   16
loop_
 _symmetry_equiv_pos_site_id
 _symmetry_equiv_pos_as_xyz
  1  'x, y, z'
loop_
 _atom_site_type_symbol
 _atom_site_label
 _atom_site_symmetry_multiplicity
 _atom_site_fract_x
 _atom_site_fract_y
 _atom_site_fract_z
 _atom_site_occupancy
  Li  Li0  1  0.74621545  0.99891030  0.18705391  1
  Li  Li1  1  0.25378428  0.50108869  0.81294715  1
  Li  Li2  1  0.24621572  0.49891131  0.31294715  1
  Li  Li3  1  0.75378455  0.00108970  0.68705391  1
  Li  Li4  1  0.25378455  0.00108970  0.81294609  1
  Li  Li5  1  0.74621572  0.49891131  0.18705285  1
  Li  Li6  1  0.75378428  0.50108869  0.68705285  1
  Li  Li7  1  0.24621545  0.99891030  0.31294609  1
  Li  Li8  1  0.74853156  0.24952860  0.06271108  1
  Li  Li9  1  0.25146860  0.25047198  0.93728811  1
  Li  Li10  1  0.24853140  0.74952802  0.43728811  1
  Li  Li11  1  0.75146844  0.75047140  0.56271108  1
  Li  Li12  1  0.25146844  0.75047140  0.93728892  1
  Li  Li13  1  0.74853140  0.74952802  0.06271189  1
  Li  Li14  1  0.75146860  0.25047198  0.56271189  1
  Li  Li15  1  0.24853156  0.24952860  0.43728892  1
  Ta  Ta16  1  0.75895041  0.99516082  0.43755020  1
  Ta  Ta17  1  0.24104733  0.50483837  0.56244680  1
  Ta  Ta18  1  0.25895267  0.49516163  0.06244680  1
  Ta  Ta19  1  0.74104959  0.00483918  0.93755020  1
  Ta  Ta20  1  0.24104959  0.00483918  0.56244980  1
  Ta  Ta21  1  0.75895267  0.49516163  0.43755320  1
  Ta  Ta22  1  0.74104733  0.50483837  0.93755320  1
  Ta  Ta23  1  0.25895041  0.99516082  0.06244980  1
  Ta  Ta24  1  0.72990312  0.24675630  0.31246403  1
  Ta  Ta25  1  0.27009635  0.25322640  0.68753868  1
  Ta  Ta26  1  0.22990365  0.74677360  0.18753868  1
  Ta  Ta27  1  0.77009688  0.75324370  0.81246403  1
  Ta  Ta28  1  0.27009688  0.75324370  0.68753597  1
  Ta  Ta29  1  0.72990365  0.74677360  0.31246132  1
  Ta  Ta30  1  0.77009635  0.25322640  0.81246132  1
  Ta  Ta31  1  0.22990312  0.24675630  0.18753597  1
  N  N32  1  0.75001883  0.49995148  0.32427933  1
  N  N33  1  0.24998178  0.00004386  0.67572043  1
  N  N34  1  0.25001822  0.99995614  0.17572043  1
  N  N35  1  0.74998117  0.50004852  0.82427933  1
  N  N36  1  0.24998117  0.50004852  0.67572067  1
  N  N37  1  0.75001822  0.99995614  0.32427957  1
  N  N38  1  0.74998178  0.00004386  0.82427957  1
  N  N39  1  0.25001883  0.49995148  0.17572067  1
  N  N40  1  0.74538729  0.25046696  0.42565480  1
  N  N41  1  0.25461373  0.24953462  0.57434503  1
  N  N42  1  0.24538627  0.75046538  0.07434503  1
  N  N43  1  0.75461271  0.74953304  0.92565480  1
  N  N44  1  0.25461271  0.74953304  0.57434520  1
  N  N45  1  0.74538627  0.75046538  0.42565497  1
  N  N46  1  0.75461373  0.24953462  0.92565497  1
  N  N47  1  0.24538729  0.25046696  0.07434520  1
  N  N48  1  0.74681770  0.50016983  0.05071039  1
  N  N49  1  0.25318084  0.99982985  0.94928977  1
  N  N50  1  0.24681916  0.00017015  0.44928977  1
  N  N51  1  0.75318230  0.49983017  0.55071039  1
  N  N52  1  0.25318230  0.49983017  0.94928961  1
  N  N53  1  0.74681916  0.00017015  0.05071023  1
  N  N54  1  0.75318084  0.99982985  0.55071023  1
  N  N55  1  0.24681770  0.50016983  0.44928961  1
  N  N56  1  0.75019738  0.24946415  0.19925488  1
  N  N57  1  0.24980491  0.25053626  0.80074536  1
  N  N58  1  0.25019509  0.74946374  0.30074536  1
  N  N59  1  0.74980262  0.75053585  0.69925488  1
  N  N60  1  0.24980262  0.75053585  0.80074512  1
  N  N61  1  0.75019509  0.74946374  0.19925464  1
  N  N62  1  0.74980491  0.25053626  0.69925464  1
  N  N63  1  0.25019738  0.24946415  0.30074512  1
