# generated using pymatgen
data_H10SO8
_symmetry_space_group_name_H-M   'P 1'
_cell_length_a   6.46602028
_cell_length_b   7.51310186
_cell_length_c   7.51310186
_cell_angle_alpha   90.00000000
_cell_angle_beta   90.00000000
_cell_angle_gamma   90.00000000
_symmetry_Int_Tables_number   1
_chemical_formula_structural   H10SO8
_chemical_formula_sum   'H20 S2 O16'
_cell_volume   364.98550409
_cell_formula_units_Z   2
loop_
 _symmetry_equiv_pos_site_id
 _symmetry_equiv_pos_as_xyz
  1  'x, y, z'
loop_
 _atom_site_type_symbol
 _atom_site_label
 _atom_site_symmetry_multiplicity
 _atom_site_fract_x
 _atom_site_fract_y
 _atom_site_fract_z
 _atom_site_occupancy
  H  H0  1  0.09093819  0.00000000  0.50000000  1
  H  H1  1  0.90906181  0.50000000  0.00000000  1
  H  H2  1  0.40906181  0.50000000  0.00000000  1
  H  H3  1  0.59093819  0.00000000  0.50000000  1
  H  H4  1  0.10515629  0.85236705  0.69186458  1
  H  H5  1  0.10515629  0.14763295  0.30813542  1
  H  H6  1  0.89484371  0.30813542  0.85236705  1
  H  H7  1  0.89484371  0.69186458  0.14763295  1
  H  H8  1  0.60515629  0.80813542  0.64763295  1
  H  H9  1  0.39484371  0.64763295  0.19186458  1
  H  H10  1  0.39484371  0.35236705  0.80813542  1
  H  H11  1  0.60515629  0.19186458  0.35236705  1
  H  H12  1  0.18849153  0.76791260  0.50597363  1
  H  H13  1  0.18849153  0.23208740  0.49402637  1
  H  H14  1  0.81150847  0.49402637  0.76791260  1
  H  H15  1  0.81150847  0.50597363  0.23208740  1
  H  H16  1  0.68849153  0.99402637  0.73208740  1
  H  H17  1  0.31150847  0.73208740  0.00597363  1
  H  H18  1  0.68849153  0.00597363  0.26791260  1
  H  H19  1  0.31150847  0.26791260  0.99402637  1
  O  O20  1  0.08295310  0.84982241  0.55917898  1
  O  O21  1  0.08295310  0.15017759  0.44082102  1
  O  O22  1  0.91704690  0.44082102  0.84982241  1
  O  O23  1  0.91704690  0.55917898  0.15017759  1
  O  O24  1  0.58295310  0.94082102  0.65017759  1
  O  O25  1  0.41704690  0.65017759  0.05917898  1
  O  O26  1  0.41704690  0.34982241  0.94082102  1
  O  O27  1  0.58295310  0.05917898  0.34982241  1
  O  O28  1  0.63129754  0.59050826  0.63632635  1
  O  O29  1  0.63129754  0.40949174  0.36367365  1
  O  O30  1  0.36870246  0.36367365  0.59050826  1
  O  O31  1  0.36870246  0.63632635  0.40949174  1
  O  O32  1  0.13129754  0.86367365  0.90949174  1
  O  O33  1  0.86870246  0.90949174  0.13632635  1
  O  O34  1  0.86870246  0.09050826  0.86367365  1
  O  O35  1  0.13129754  0.13632635  0.09050826  1
  S  S36  1  0.50000000  0.50000000  0.50000000  1
  S  S37  1  0.00000000  0.00000000  0.00000000  1
