# generated using pymatgen
data_Ag8GeTe6
_symmetry_space_group_name_H-M   'P 1'
_cell_length_a   8.30180410
_cell_length_b   8.16653789
_cell_length_c   8.15433346
_cell_angle_alpha   63.61809843
_cell_angle_beta   62.09390678
_cell_angle_gamma   61.76634545
_symmetry_Int_Tables_number   1
_chemical_formula_structural   Ag8GeTe6
_chemical_formula_sum   'Ag8 Ge1 Te6'
_cell_volume   412.40360148
_cell_formula_units_Z   1
loop_
 _symmetry_equiv_pos_site_id
 _symmetry_equiv_pos_as_xyz
  1  'x, y, z'
loop_
 _atom_site_type_symbol
 _atom_site_label
 _atom_site_symmetry_multiplicity
 _atom_site_fract_x
 _atom_site_fract_y
 _atom_site_fract_z
 _atom_site_occupancy
  Ag  Ag0  1  0.22054745  0.20319940  0.87967413  1
  Ag  Ag1  1  0.23551630  0.83589612  0.16970459  1
  Ag  Ag2  1  0.58415237  0.20757330  0.21540551  1
  Ag  Ag3  1  0.94041348  0.66265566  0.30992029  1
  Ag  Ag4  1  0.97589485  0.33421547  0.65098582  1
  Ag  Ag5  1  0.55139714  0.00494830  0.01766706  1
  Ag  Ag6  1  0.02635442  0.00061584  0.56880016  1
  Ag  Ag7  1  0.02770917  0.58721904  0.96674385  1
  Ge  Ge8  1  0.54006208  0.48599851  0.49114104  1
  Te  Te9  1  0.95187405  0.00481030  0.98604684  1
  Te  Te10  1  0.21337570  0.25723506  0.24052972  1
  Te  Te11  1  0.15953595  0.60466757  0.57823027  1
  Te  Te12  1  0.63302038  0.59450188  0.11027420  1
  Te  Te13  1  0.62841428  0.10820965  0.59845882  1
  Te  Te14  1  0.62083239  0.64335390  0.64451770  1
