# generated using pymatgen
data_Li7BiN4
_symmetry_space_group_name_H-M   'P 1'
_cell_length_a   10.12578961
_cell_length_b   10.12578961
_cell_length_c   10.12578961
_cell_angle_alpha   90.00000000
_cell_angle_beta   90.00000000
_cell_angle_gamma   90.00000000
_symmetry_Int_Tables_number   1
_chemical_formula_structural   Li7BiN4
_chemical_formula_sum   'Li56 Bi8 N32'
_cell_volume   1038.21356415
_cell_formula_units_Z   8
loop_
 _symmetry_equiv_pos_site_id
 _symmetry_equiv_pos_as_xyz
  1  'x, y, z'
loop_
 _atom_site_type_symbol
 _atom_site_label
 _atom_site_symmetry_multiplicity
 _atom_site_fract_x
 _atom_site_fract_y
 _atom_site_fract_z
 _atom_site_occupancy
  Li  Li0  1  0.00000000  0.00000000  0.50000000  1
  Li  Li1  1  0.00000000  0.50000000  0.00000000  1
  Li  Li2  1  0.50000000  0.00000000  0.00000000  1
  Li  Li3  1  0.50000000  0.00000000  0.50000000  1
  Li  Li4  1  0.50000000  0.50000000  0.00000000  1
  Li  Li5  1  0.00000000  0.50000000  0.50000000  1
  Li  Li6  1  0.00000000  0.50000000  0.25000000  1
  Li  Li7  1  0.50000000  0.75000000  0.00000000  1
  Li  Li8  1  0.25000000  0.00000000  0.50000000  1
  Li  Li9  1  0.50000000  0.25000000  0.00000000  1
  Li  Li10  1  0.75000000  0.00000000  0.50000000  1
  Li  Li11  1  0.00000000  0.50000000  0.75000000  1
  Li  Li12  1  0.25387538  0.74612462  0.25387538  1
  Li  Li13  1  0.74612462  0.25387538  0.25387538  1
  Li  Li14  1  0.25387538  0.25387538  0.74612462  1
  Li  Li15  1  0.74612462  0.74612462  0.74612462  1
  Li  Li16  1  0.75387538  0.75387538  0.24612462  1
  Li  Li17  1  0.24612462  0.75387538  0.75387538  1
  Li  Li18  1  0.75387538  0.24612462  0.75387538  1
  Li  Li19  1  0.24612462  0.24612462  0.24612462  1
  Li  Li20  1  0.50000000  0.50000000  0.22961142  1
  Li  Li21  1  0.50000000  0.77038858  0.50000000  1
  Li  Li22  1  0.22961142  0.50000000  0.50000000  1
  Li  Li23  1  0.50000000  0.22961142  0.50000000  1
  Li  Li24  1  0.77038858  0.50000000  0.50000000  1
  Li  Li25  1  0.50000000  0.50000000  0.77038858  1
  Li  Li26  1  0.00000000  0.72961142  0.00000000  1
  Li  Li27  1  0.00000000  0.00000000  0.27038858  1
  Li  Li28  1  0.72961142  0.00000000  0.00000000  1
  Li  Li29  1  0.00000000  0.00000000  0.72961142  1
  Li  Li30  1  0.27038858  0.00000000  0.00000000  1
  Li  Li31  1  0.00000000  0.27038858  0.00000000  1
  Li  Li32  1  0.50446047  0.73015255  0.25127855  1
  Li  Li33  1  0.26984745  0.74872145  0.50446047  1
  Li  Li34  1  0.25127855  0.49553953  0.26984745  1
  Li  Li35  1  0.49553953  0.26984745  0.25127855  1
  Li  Li36  1  0.73015255  0.25127855  0.50446047  1
  Li  Li37  1  0.74872145  0.50446047  0.26984745  1
  Li  Li38  1  0.50446047  0.26984745  0.74872145  1
  Li  Li39  1  0.26984745  0.25127855  0.49553953  1
  Li  Li40  1  0.25127855  0.50446047  0.73015255  1
  Li  Li41  1  0.49553953  0.73015255  0.74872145  1
  Li  Li42  1  0.73015255  0.74872145  0.49553953  1
  Li  Li43  1  0.74872145  0.49553953  0.73015255  1
  Li  Li44  1  0.00446047  0.75127855  0.23015255  1
  Li  Li45  1  0.76984745  0.00446047  0.24872145  1
  Li  Li46  1  0.75127855  0.76984745  0.99553953  1
  Li  Li47  1  0.99553953  0.75127855  0.76984745  1
  Li  Li48  1  0.23015255  0.00446047  0.75127855  1
  Li  Li49  1  0.24872145  0.76984745  0.00446047  1
  Li  Li50  1  0.00446047  0.24872145  0.76984745  1
  Li  Li51  1  0.76984745  0.99553953  0.75127855  1
  Li  Li52  1  0.75127855  0.23015255  0.00446047  1
  Li  Li53  1  0.99553953  0.24872145  0.23015255  1
  Li  Li54  1  0.23015255  0.99553953  0.24872145  1
  Li  Li55  1  0.24872145  0.23015255  0.99553953  1
  Bi  Bi56  1  0.50000000  0.50000000  0.50000000  1
  Bi  Bi57  1  0.00000000  0.00000000  0.00000000  1
  Bi  Bi58  1  0.50000000  0.00000000  0.25000000  1
  Bi  Bi59  1  0.00000000  0.75000000  0.50000000  1
  Bi  Bi60  1  0.25000000  0.50000000  0.00000000  1
  Bi  Bi61  1  0.00000000  0.25000000  0.50000000  1
  Bi  Bi62  1  0.75000000  0.50000000  0.00000000  1
  Bi  Bi63  1  0.50000000  0.00000000  0.75000000  1
  N  N64  1  0.37662064  0.62337936  0.37662064  1
  N  N65  1  0.62337936  0.37662064  0.37662064  1
  N  N66  1  0.37662064  0.37662064  0.62337936  1
  N  N67  1  0.62337936  0.62337936  0.62337936  1
  N  N68  1  0.87662064  0.87662064  0.12337936  1
  N  N69  1  0.12337936  0.87662064  0.87662064  1
  N  N70  1  0.87662064  0.12337936  0.87662064  1
  N  N71  1  0.12337936  0.12337936  0.12337936  1
  N  N72  1  0.37718407  0.87478165  0.12730182  1
  N  N73  1  0.12521835  0.87269818  0.37718407  1
  N  N74  1  0.12730182  0.62281593  0.12521835  1
  N  N75  1  0.62281593  0.12521835  0.12730182  1
  N  N76  1  0.87478165  0.12730182  0.37718407  1
  N  N77  1  0.87269818  0.37718407  0.12521835  1
  N  N78  1  0.37718407  0.12521835  0.87269818  1
  N  N79  1  0.12521835  0.12730182  0.62281593  1
  N  N80  1  0.12730182  0.37718407  0.87478165  1
  N  N81  1  0.62281593  0.87478165  0.87269818  1
  N  N82  1  0.87478165  0.87269818  0.62281593  1
  N  N83  1  0.87269818  0.62281593  0.87478165  1
  N  N84  1  0.87718407  0.62730182  0.37478165  1
  N  N85  1  0.62521835  0.87718407  0.37269818  1
  N  N86  1  0.62730182  0.62521835  0.12281593  1
  N  N87  1  0.12281593  0.62730182  0.62521835  1
  N  N88  1  0.37478165  0.87718407  0.62730182  1
  N  N89  1  0.37269818  0.62521835  0.87718407  1
  N  N90  1  0.87718407  0.37269818  0.62521835  1
  N  N91  1  0.62521835  0.12281593  0.62730182  1
  N  N92  1  0.62730182  0.37478165  0.87718407  1
  N  N93  1  0.12281593  0.37269818  0.37478165  1
  N  N94  1  0.37478165  0.12281593  0.37269818  1
  N  N95  1  0.37269818  0.37478165  0.12281593  1
