# generated using pymatgen
data_Li2MnSiO4
_symmetry_space_group_name_H-M   'P 1'
_cell_length_a   5.05800071
_cell_length_b   5.45379043
_cell_length_c   6.37449293
_cell_angle_alpha   90.00000000
_cell_angle_beta   90.00000000
_cell_angle_gamma   90.00000000
_symmetry_Int_Tables_number   1
_chemical_formula_structural   Li2MnSiO4
_chemical_formula_sum   'Li4 Mn2 Si2 O8'
_cell_volume   175.84214599
_cell_formula_units_Z   2
loop_
 _symmetry_equiv_pos_site_id
 _symmetry_equiv_pos_as_xyz
  1  'x, y, z'
loop_
 _atom_site_type_symbol
 _atom_site_label
 _atom_site_symmetry_multiplicity
 _atom_site_fract_x
 _atom_site_fract_y
 _atom_site_fract_z
 _atom_site_occupancy
  Li  Li0  1  0.55660119  0.33092174  0.74877569  1
  Li  Li1  1  0.55660119  0.33092174  0.25122431  1
  Li  Li2  1  0.05660119  0.66907826  0.24877569  1
  Li  Li3  1  0.05660119  0.66907826  0.75122431  1
  Mn  Mn4  1  0.55921036  0.83436817  0.00000000  1
  Mn  Mn5  1  0.05921036  0.16563183  0.50000000  1
  Si  Si6  1  0.04996312  0.17869379  0.00000000  1
  Si  Si7  1  0.54996312  0.82130621  0.50000000  1
  O  O8  1  0.72315411  0.18591993  0.00000000  1
  O  O9  1  0.16203471  0.32052126  0.78809612  1
  O  O10  1  0.66203471  0.67947874  0.28809612  1
  O  O11  1  0.22315411  0.81408007  0.50000000  1
  O  O12  1  0.14544061  0.88680420  0.00000000  1
  O  O13  1  0.64544061  0.11319580  0.50000000  1
  O  O14  1  0.66203471  0.67947874  0.71190388  1
  O  O15  1  0.16203471  0.32052126  0.21190388  1
