# generated using pymatgen
data_Na3SnPCO7
_symmetry_space_group_name_H-M   'P 1'
_cell_length_a   9.39793998
_cell_length_b   5.43318580
_cell_length_c   7.05115003
_cell_angle_alpha   90.00000000
_cell_angle_beta   90.00000000
_cell_angle_gamma   92.92505112
_symmetry_Int_Tables_number   1
_chemical_formula_structural   Na3SnPCO7
_chemical_formula_sum   'Na6 Sn2 P2 C2 O14'
_cell_volume   359.56795988
_cell_formula_units_Z   2
loop_
 _symmetry_equiv_pos_site_id
 _symmetry_equiv_pos_as_xyz
  1  'x, y, z'
loop_
 _atom_site_type_symbol
 _atom_site_label
 _atom_site_symmetry_multiplicity
 _atom_site_fract_x
 _atom_site_fract_y
 _atom_site_fract_z
 _atom_site_occupancy
  Na  Na0  1  0.01583192  0.99251885  0.47573487  1
  Na  Na1  1  0.17142769  0.50323808  0.19741584  1
  Na  Na2  1  0.48932332  0.52376612  0.47793637  1
  Na  Na3  1  0.51067668  0.47623388  0.97793637  1
  Na  Na4  1  0.82857231  0.49676192  0.69741584  1
  Na  Na5  1  0.98416808  0.00748115  0.97573487  1
  Sn  Sn6  1  0.31596668  0.94698285  0.75172981  1
  Sn  Sn7  1  0.68403332  0.05301715  0.25172981  1
  P  P8  1  0.32648393  0.99742859  0.23893294  1
  P  P9  1  0.67351607  0.00257141  0.73893294  1
  C  C10  1  0.14311049  0.49973590  0.74048701  1
  C  C11  1  0.85688951  0.50026410  0.24048701  1
  O  O12  1  0.06857212  0.29579364  0.72433592  1
  O  O13  1  0.08073290  0.70752469  0.76527048  1
  O  O14  1  0.20282985  0.08025689  0.11477142  1
  O  O15  1  0.26321854  0.92789669  0.44100044  1
  O  O16  1  0.28295143  0.51063889  0.73294655  1
  O  O17  1  0.39276374  0.76196972  0.16119977  1
  O  O18  1  0.44172906  0.21456425  0.25283759  1
  O  O19  1  0.55827094  0.78543575  0.75283759  1
  O  O20  1  0.60723626  0.23803028  0.66119977  1
  O  O21  1  0.71704857  0.48936111  0.23294655  1
  O  O22  1  0.73678146  0.07210331  0.94100044  1
  O  O23  1  0.79717015  0.91974311  0.61477142  1
  O  O24  1  0.91926710  0.29247531  0.26527048  1
  O  O25  1  0.93142788  0.70420636  0.22433592  1
