# generated using pymatgen
data_H6PbCNCl3
_symmetry_space_group_name_H-M   'P 1'
_cell_length_a   5.75283242
_cell_length_b   5.76467148
_cell_length_c   5.85520179
_cell_angle_alpha   90.00037617
_cell_angle_beta   90.02547727
_cell_angle_gamma   90.00058886
_symmetry_Int_Tables_number   1
_chemical_formula_structural   H6PbCNCl3
_chemical_formula_sum   'H6 Pb1 C1 N1 Cl3'
_cell_volume   194.17714420
_cell_formula_units_Z   1
loop_
 _symmetry_equiv_pos_site_id
 _symmetry_equiv_pos_as_xyz
  1  'x, y, z'
loop_
 _atom_site_type_symbol
 _atom_site_label
 _atom_site_symmetry_multiplicity
 _atom_site_fract_x
 _atom_site_fract_y
 _atom_site_fract_z
 _atom_site_occupancy
  H  H0  1  0.87947607  0.99983450  0.79042258  1
  H  H1  1  0.81325173  0.15590829  0.04738662  1
  H  H2  1  0.81303797  0.84427375  0.04763352  1
  H  H3  1  0.22966091  0.14566373  0.97853813  1
  H  H4  1  0.22949859  0.85388308  0.97868959  1
  H  H5  1  0.17095734  0.99993520  0.21641228  1
  Pb  Pb6  1  0.47398838  0.49998009  0.48387372  1
  C  C7  1  0.89426843  0.99997873  0.97684843  1
  N  N8  1  0.14493196  0.99985689  0.04073090  1
  Cl  Cl9  1  0.42789110  0.49989862  0.97555763  1
  Cl  Cl10  1  0.42919233  0.99998878  0.52003564  1
  Cl  Cl11  1  0.97182619  0.50009934  0.43965997  1
