# generated using pymatgen
data_NaSb
_symmetry_space_group_name_H-M   'P 1'
_cell_length_a   6.41205607
_cell_length_b   6.82721840
_cell_length_c   11.21929411
_cell_angle_alpha   95.24968033
_cell_angle_beta   90.00000000
_cell_angle_gamma   90.00000000
_symmetry_Int_Tables_number   1
_chemical_formula_structural   NaSb
_chemical_formula_sum   'Na8 Sb8'
_cell_volume   489.08138606
_cell_formula_units_Z   8
loop_
 _symmetry_equiv_pos_site_id
 _symmetry_equiv_pos_as_xyz
  1  'x, y, z'
loop_
 _atom_site_type_symbol
 _atom_site_label
 _atom_site_symmetry_multiplicity
 _atom_site_fract_x
 _atom_site_fract_y
 _atom_site_fract_z
 _atom_site_occupancy
  Na  Na0  1  0.83701713  0.30808302  0.54105013  1
  Na  Na1  1  0.33701713  0.19191698  0.95894987  1
  Na  Na2  1  0.16298287  0.69191698  0.45894987  1
  Na  Na3  1  0.66298287  0.80808302  0.04105013  1
  Na  Na4  1  0.09941570  0.59671085  0.82639741  1
  Na  Na5  1  0.59941570  0.90328915  0.67360259  1
  Na  Na6  1  0.90058430  0.40328915  0.17360259  1
  Na  Na7  1  0.40058430  0.09671085  0.32639741  1
  Sb  Sb8  1  0.33887826  0.31407829  0.60388581  1
  Sb  Sb9  1  0.83887826  0.18592171  0.89611419  1
  Sb  Sb10  1  0.66112174  0.68592171  0.39611419  1
  Sb  Sb11  1  0.16112174  0.81407829  0.10388581  1
  Sb  Sb12  1  0.59654260  0.48988559  0.79707366  1
  Sb  Sb13  1  0.09654260  0.01011441  0.70292634  1
  Sb  Sb14  1  0.40345740  0.51011441  0.20292634  1
  Sb  Sb15  1  0.90345740  0.98988559  0.29707366  1
