# generated using pymatgen
data_BaCa2I6
_symmetry_space_group_name_H-M   'P 1'
_cell_length_a   8.19889496
_cell_length_b   8.58853675
_cell_length_c   11.86037846
_cell_angle_alpha   90.00000000
_cell_angle_beta   91.02991750
_cell_angle_gamma   90.00000000
_symmetry_Int_Tables_number   1
_chemical_formula_structural   BaCa2I6
_chemical_formula_sum   'Ba2 Ca4 I12'
_cell_volume   835.03154217
_cell_formula_units_Z   2
loop_
 _symmetry_equiv_pos_site_id
 _symmetry_equiv_pos_as_xyz
  1  'x, y, z'
loop_
 _atom_site_type_symbol
 _atom_site_label
 _atom_site_symmetry_multiplicity
 _atom_site_fract_x
 _atom_site_fract_y
 _atom_site_fract_z
 _atom_site_occupancy
  Ba  Ba0  1  0.46424254  0.32981814  0.52268086  1
  Ba  Ba1  1  0.96424254  0.67018186  0.02268086  1
  Ca  Ca2  1  0.48352790  0.73566101  0.74969489  1
  Ca  Ca3  1  0.48302863  0.77532805  0.25091345  1
  Ca  Ca4  1  0.98352790  0.26433899  0.24969489  1
  Ca  Ca5  1  0.98302863  0.22467195  0.75091345  1
  I  I6  1  0.16140915  0.58634841  0.29899423  1
  I  I7  1  0.09912473  0.28899739  0.99906618  1
  I  I8  1  0.17624064  0.53074005  0.68578664  1
  I  I9  1  0.36359125  0.79262031  0.99619872  1
  I  I10  1  0.28702373  0.03237264  0.67706718  1
  I  I11  1  0.31401844  0.09664690  0.30443486  1
  I  I12  1  0.66140915  0.41365159  0.79899423  1
  I  I13  1  0.59912473  0.71100261  0.49906618  1
  I  I14  1  0.67624064  0.46925995  0.18578664  1
  I  I15  1  0.86359125  0.20737969  0.49619872  1
  I  I16  1  0.78702373  0.96762736  0.17706718  1
  I  I17  1  0.81401844  0.90335310  0.80443486  1
