# generated using pymatgen
data_HfTiO4
_symmetry_space_group_name_H-M   'P 1'
_cell_length_a   4.77077732
_cell_length_b   5.68478557
_cell_length_c   10.17510622
_cell_angle_alpha   90.14598669
_cell_angle_beta   89.05909164
_cell_angle_gamma   89.94365718
_symmetry_Int_Tables_number   1
_chemical_formula_structural   HfTiO4
_chemical_formula_sum   'Hf4 Ti4 O16'
_cell_volume   275.91923939
_cell_formula_units_Z   4
loop_
 _symmetry_equiv_pos_site_id
 _symmetry_equiv_pos_as_xyz
  1  'x, y, z'
loop_
 _atom_site_type_symbol
 _atom_site_label
 _atom_site_symmetry_multiplicity
 _atom_site_fract_x
 _atom_site_fract_y
 _atom_site_fract_z
 _atom_site_occupancy
  Hf  Hf0  1  0.00173643  0.67231997  0.87911461  1
  Hf  Hf1  1  0.49914700  0.17906109  0.87816409  1
  Hf  Hf2  1  0.50135793  0.81809437  0.62061779  1
  Hf  Hf3  1  0.49871216  0.18244821  0.37161884  1
  Ti  Ti4  1  -0.00018601  0.31899637  0.12800470  1
  Ti  Ti5  1  0.00222634  0.67288645  0.37192735  1
  Ti  Ti6  1  0.99654902  0.32753023  0.62208626  1
  Ti  Ti7  1  0.50202733  0.81290398  0.12870703  1
  O  O8  1  0.24550345  0.61323303  0.04556748  1
  O  O9  1  0.21693018  0.61040797  0.52991655  1
  O  O10  1  0.22484073  0.39129478  0.78145997  1
  O  O11  1  0.20725876  0.39024733  0.28580856  1
  O  O12  1  0.25822634  0.11588274  0.04762585  1
  O  O13  1  0.27270230  0.87824868  0.29053635  1
  O  O14  1  0.28099764  0.89333598  0.79150860  1
  O  O15  1  0.26649203  0.11840726  0.54339363  1
  O  O16  1  0.73158863  0.11708146  0.20308539  1
  O  O17  1  0.74271426  0.11447935  0.70534501  1
  O  O18  1  0.73654527  0.88537718  0.45063890  1
  O  O19  1  0.71034003  0.88615844  0.96707285  1
  O  O20  1  0.78799298  0.38608494  0.96896109  1
  O  O21  1  0.77810918  0.39272178  0.46458709  1
  O  O22  1  0.77381030  0.60310230  0.71171130  1
  O  O23  1  0.76437873  0.61969512  0.21254070  1
