# generated using pymatgen
data_GePb3O5
_symmetry_space_group_name_H-M   'P 1'
_cell_length_a   5.50092838
_cell_length_b   5.38799868
_cell_length_c   5.40724841
_cell_angle_alpha   89.15892135
_cell_angle_beta   90.00000000
_cell_angle_gamma   90.00000000
_symmetry_Int_Tables_number   1
_chemical_formula_structural   GePb3O5
_chemical_formula_sum   'Ge1 Pb3 O5'
_cell_volume   160.24814031
_cell_formula_units_Z   1
loop_
 _symmetry_equiv_pos_site_id
 _symmetry_equiv_pos_as_xyz
  1  'x, y, z'
loop_
 _atom_site_type_symbol
 _atom_site_label
 _atom_site_symmetry_multiplicity
 _atom_site_fract_x
 _atom_site_fract_y
 _atom_site_fract_z
 _atom_site_occupancy
  Ge  Ge0  1  0.51662702  0.50000000  0.00000000  1
  Pb  Pb1  1  0.54813450  0.00000000  0.50000000  1
  Pb  Pb2  1  0.02146625  0.00000000  0.00000000  1
  Pb  Pb3  1  0.02138460  0.50000000  0.50000000  1
  O  O4  1  0.70946013  0.31408941  0.81281780  1
  O  O5  1  0.32722774  0.30856934  0.18992728  1
  O  O6  1  0.32722774  0.69143066  0.81007272  1
  O  O7  1  0.70946013  0.68591059  0.18718220  1
  O  O8  1  0.96901190  0.00000000  0.50000000  1
