# generated using pymatgen
data_Sr2ZnGe2O7
_symmetry_space_group_name_H-M   'P 1'
_cell_length_a   5.40083943
_cell_length_b   8.25775894
_cell_length_c   8.25775894
_cell_angle_alpha   90.00000000
_cell_angle_beta   90.00000000
_cell_angle_gamma   90.00000000
_symmetry_Int_Tables_number   1
_chemical_formula_structural   Sr2ZnGe2O7
_chemical_formula_sum   'Sr4 Zn2 Ge4 O14'
_cell_volume   368.28638786
_cell_formula_units_Z   2
loop_
 _symmetry_equiv_pos_site_id
 _symmetry_equiv_pos_as_xyz
  1  'x, y, z'
loop_
 _atom_site_type_symbol
 _atom_site_label
 _atom_site_symmetry_multiplicity
 _atom_site_fract_x
 _atom_site_fract_y
 _atom_site_fract_z
 _atom_site_occupancy
  O  O0  1  0.79246147  0.67896542  0.58276223  1
  O  O1  1  0.79246147  0.32103458  0.41723777  1
  O  O2  1  0.20753853  0.41723777  0.67896542  1
  O  O3  1  0.20753853  0.58276223  0.32103458  1
  O  O4  1  0.79246147  0.91723777  0.82103458  1
  O  O5  1  0.20753853  0.82103458  0.08276223  1
  O  O6  1  0.20753853  0.17896542  0.91723777  1
  O  O7  1  0.79246147  0.08276223  0.17896542  1
  O  O8  1  0.27490216  0.86158386  0.63841614  1
  O  O9  1  0.72509784  0.63841614  0.13841614  1
  O  O10  1  0.18295349  0.50000000  0.00000000  1
  O  O11  1  0.81704651  0.00000000  0.50000000  1
  O  O12  1  0.27490216  0.13841614  0.36158386  1
  O  O13  1  0.72509784  0.36158386  0.86158386  1
  Zn  Zn14  1  0.00000000  0.00000000  0.00000000  1
  Zn  Zn15  1  0.00000000  0.50000000  0.50000000  1
  Ge  Ge16  1  0.95290703  0.85709907  0.64290093  1
  Ge  Ge17  1  0.95290703  0.14290093  0.35709907  1
  Ge  Ge18  1  0.04709297  0.64290093  0.14290093  1
  Ge  Ge19  1  0.04709297  0.35709907  0.85709907  1
  Sr  Sr20  1  0.50731498  0.66565711  0.83434289  1
  Sr  Sr21  1  0.49268502  0.83434289  0.33434289  1
  Sr  Sr22  1  0.49268502  0.16565711  0.66565711  1
  Sr  Sr23  1  0.50731498  0.33434289  0.16565711  1
