# generated using pymatgen
data_SiO2
_symmetry_space_group_name_H-M   'P 1'
_cell_length_a   9.00605055
_cell_length_b   9.25887442
_cell_length_c   9.25887349
_cell_angle_alpha   110.94477464
_cell_angle_beta   98.73319473
_cell_angle_gamma   98.73319998
_symmetry_Int_Tables_number   1
_chemical_formula_structural   SiO2
_chemical_formula_sum   'Si12 O24'
_cell_volume   694.69394566
_cell_formula_units_Z   12
loop_
 _symmetry_equiv_pos_site_id
 _symmetry_equiv_pos_as_xyz
  1  'x, y, z'
loop_
 _atom_site_type_symbol
 _atom_site_label
 _atom_site_symmetry_multiplicity
 _atom_site_fract_x
 _atom_site_fract_y
 _atom_site_fract_z
 _atom_site_occupancy
  Si  Si0  1  0.30768486  0.20130785  0.00028008  1
  Si  Si1  1  0.30768486  0.00028008  0.20130785  1
  Si  Si2  1  0.33034093  0.90894398  0.70344359  1
  Si  Si3  1  0.10420353  0.40411898  0.88928329  1
  Si  Si4  1  0.67085649  0.09880353  0.30000031  1
  Si  Si5  1  0.89307853  0.59610057  0.10474504  1
  Si  Si6  1  0.68528942  0.80001631  0.00540505  1
  Si  Si7  1  0.10420353  0.88928329  0.40411898  1
  Si  Si8  1  0.68528942  0.00540505  0.80001631  1
  Si  Si9  1  0.33034093  0.70344359  0.90894398  1
  Si  Si10  1  0.89307853  0.10474504  0.59610057  1
  Si  Si11  1  0.67085649  0.30000031  0.09880353  1
  O  O12  1  0.80546273  0.68774332  0.00944714  1
  O  O13  1  0.71802136  0.24569645  0.24569645  1
  O  O14  1  0.99398992  0.99331671  0.49643903  1
  O  O15  1  0.30468827  0.76545150  0.76545150  1
  O  O16  1  0.28397604  0.06464333  0.82317900  1
  O  O17  1  0.00293208  0.27147500  0.72172372  1
  O  O18  1  0.99398992  0.49643903  0.99331671  1
  O  O19  1  0.25606883  0.12041445  0.12041445  1
  O  O20  1  0.71250536  0.18102897  0.93964682  1
  O  O21  1  0.80546273  0.00944714  0.68774332  1
  O  O22  1  0.48728193  0.29683091  0.06690225  1
  O  O23  1  0.28397604  0.82317900  0.06464333  1
  O  O24  1  0.71250536  0.93964682  0.18102897  1
  O  O25  1  0.19940660  0.99189094  0.32346436  1
  O  O26  1  0.50977655  0.95349746  0.69388521  1
  O  O27  1  0.50977655  0.69388521  0.95349746  1
  O  O28  1  0.76718690  0.14432073  0.47826697  1
  O  O29  1  0.00293208  0.72172372  0.27147500  1
  O  O30  1  0.71572767  0.87679556  0.87679556  1
  O  O31  1  0.19940660  0.32346436  0.99189094  1
  O  O32  1  0.76718690  0.47826697  0.14432073  1
  O  O33  1  0.22344007  0.84966235  0.52749924  1
  O  O34  1  0.22344007  0.52749924  0.84966235  1
  O  O35  1  0.48728193  0.06690225  0.29683091  1
