# generated using pymatgen
data_LiSbWO6
_symmetry_space_group_name_H-M   'P 1'
_cell_length_a   7.31717362
_cell_length_b   7.31717398
_cell_length_c   7.20867007
_cell_angle_alpha   60.48207115
_cell_angle_beta   119.51793747
_cell_angle_gamma   119.01438389
_symmetry_Int_Tables_number   1
_chemical_formula_structural   LiSbWO6
_chemical_formula_sum   'Li2 Sb2 W2 O12'
_cell_volume   276.90528492
_cell_formula_units_Z   2
loop_
 _symmetry_equiv_pos_site_id
 _symmetry_equiv_pos_as_xyz
  1  'x, y, z'
loop_
 _atom_site_type_symbol
 _atom_site_label
 _atom_site_symmetry_multiplicity
 _atom_site_fract_x
 _atom_site_fract_y
 _atom_site_fract_z
 _atom_site_occupancy
  Li  Li0  1  0.12500000  0.37500000  0.37500000  1
  Li  Li1  1  0.62500000  0.87500000  0.37500000  1
  Sb  Sb2  1  0.12500000  0.87500000  0.37500000  1
  Sb  Sb3  1  0.12500000  0.87500000  0.87500000  1
  W  W4  1  0.12500000  0.37500000  0.87500000  1
  W  W5  1  0.62500000  0.87500000  0.87500000  1
  O  O6  1  0.19096709  0.19638276  0.19136370  1
  O  O7  1  0.20936633  0.79063367  0.20937008  1
  O  O8  1  0.04063367  0.95936633  0.54062992  1
  O  O9  1  0.05903291  0.55361724  0.55863630  1
  O  O10  1  0.05896792  0.55357685  0.94673505  1
  O  O11  1  0.44638276  0.94096709  0.55863630  1
  O  O12  1  0.80361724  0.80903291  0.19136370  1
  O  O13  1  0.19103208  0.19642315  0.80326495  1
  O  O14  1  0.42987148  0.57012852  0.93009213  1
  O  O15  1  0.44642315  0.94103208  0.94673505  1
  O  O16  1  0.80357685  0.80896792  0.80326495  1
  O  O17  1  0.82012852  0.17987148  0.81990787  1
