# generated using pymatgen
data_Cs2ZrTlOF5
_symmetry_space_group_name_H-M   'P 1'
_cell_length_a   6.81961635
_cell_length_b   6.85893162
_cell_length_c   6.81961697
_cell_angle_alpha   59.80910797
_cell_angle_beta   60.38177472
_cell_angle_gamma   59.80910769
_symmetry_Int_Tables_number   1
_chemical_formula_structural   Cs2ZrTlOF5
_chemical_formula_sum   'Cs2 Zr1 Tl1 O1 F5'
_cell_volume   225.54454819
_cell_formula_units_Z   1
loop_
 _symmetry_equiv_pos_site_id
 _symmetry_equiv_pos_as_xyz
  1  'x, y, z'
loop_
 _atom_site_type_symbol
 _atom_site_label
 _atom_site_symmetry_multiplicity
 _atom_site_fract_x
 _atom_site_fract_y
 _atom_site_fract_z
 _atom_site_occupancy
  Cs  Cs0  1  0.25165403  0.24834597  0.25165403  1
  Cs  Cs1  1  0.75165403  0.74834597  0.75165403  1
  F  F2  1  0.21023725  0.21947488  0.78052512  1
  F  F3  1  0.78052512  0.21947488  0.21023725  1
  F  F4  1  0.21023725  0.78976275  0.78052512  1
  F  F5  1  0.78052512  0.78976275  0.21023725  1
  F  F6  1  0.79040245  0.20959755  0.79040245  1
  O  O7  1  0.21882985  0.78117015  0.21882985  1
  Tl  Tl8  1  0.48693325  0.51306675  0.48693325  1
  Zr  Zr9  1  0.01900163  0.98099837  0.01900163  1
