# generated using pymatgen
data_HgBr2
_symmetry_space_group_name_H-M   'P 1'
_cell_length_a   4.30854264
_cell_length_b   4.30854264
_cell_length_c   13.08790883
_cell_angle_alpha   90.00000000
_cell_angle_beta   90.00000000
_cell_angle_gamma   108.64876632
_symmetry_Int_Tables_number   1
_chemical_formula_structural   HgBr2
_chemical_formula_sum   'Hg2 Br4'
_cell_volume   230.20179567
_cell_formula_units_Z   2
loop_
 _symmetry_equiv_pos_site_id
 _symmetry_equiv_pos_as_xyz
  1  'x, y, z'
loop_
 _atom_site_type_symbol
 _atom_site_label
 _atom_site_symmetry_multiplicity
 _atom_site_fract_x
 _atom_site_fract_y
 _atom_site_fract_z
 _atom_site_occupancy
  Br  Br0  1  0.59991369  0.40008631  0.12566612  1
  Br  Br1  1  0.40008631  0.59991369  0.62566612  1
  Br  Br2  1  0.06761838  0.93238162  0.87420046  1
  Br  Br3  1  0.93238162  0.06761838  0.37420046  1
  Hg  Hg4  1  0.66642103  0.33357897  0.50013342  1
  Hg  Hg5  1  0.33357897  0.66642103  0.00013342  1
