# generated using pymatgen
data_Mg(GaO2)2
_symmetry_space_group_name_H-M   'P 1'
_cell_length_a   5.91929297
_cell_length_b   5.91929270
_cell_length_c   5.98998012
_cell_angle_alpha   59.60417548
_cell_angle_beta   59.60417169
_cell_angle_gamma   59.59701409
_symmetry_Int_Tables_number   1
_chemical_formula_structural   Mg(GaO2)2
_chemical_formula_sum   'Mg2 Ga4 O8'
_cell_volume   147.06232013
_cell_formula_units_Z   2
loop_
 _symmetry_equiv_pos_site_id
 _symmetry_equiv_pos_as_xyz
  1  'x, y, z'
loop_
 _atom_site_type_symbol
 _atom_site_label
 _atom_site_symmetry_multiplicity
 _atom_site_fract_x
 _atom_site_fract_y
 _atom_site_fract_z
 _atom_site_occupancy
  Ga  Ga0  1  0.98985046  0.98985046  0.01014954  1
  Ga  Ga1  1  0.26014954  0.26014954  0.23985046  1
  Ga  Ga2  1  0.62500000  0.62500000  0.12500000  1
  Ga  Ga3  1  0.62500000  0.62500000  0.62500000  1
  Mg  Mg4  1  0.12500000  0.62500000  0.62500000  1
  Mg  Mg5  1  0.62500000  0.12500000  0.62500000  1
  O  O6  1  0.38684526  0.38684526  0.37240525  1
  O  O7  1  0.38684526  0.38684526  0.85390422  1
  O  O8  1  0.38805969  0.86021822  0.37586105  1
  O  O9  1  0.86021822  0.38805969  0.37586105  1
  O  O10  1  0.38978178  0.86194031  0.87413895  1
  O  O11  1  0.86194031  0.38978178  0.87413895  1
  O  O12  1  0.86315474  0.86315474  0.39609578  1
  O  O13  1  0.86315474  0.86315474  0.87759475  1
