# generated using pymatgen
data_RbS
_symmetry_space_group_name_H-M   'P 1'
_cell_length_a   5.07675732
_cell_length_b   6.13435153
_cell_length_c   6.13435160
_cell_angle_alpha   68.33704575
_cell_angle_beta   65.55639120
_cell_angle_gamma   65.55639452
_symmetry_Int_Tables_number   1
_chemical_formula_structural   RbS
_chemical_formula_sum   'Rb2 S2'
_cell_volume   153.74737319
_cell_formula_units_Z   2
loop_
 _symmetry_equiv_pos_site_id
 _symmetry_equiv_pos_as_xyz
  1  'x, y, z'
loop_
 _atom_site_type_symbol
 _atom_site_label
 _atom_site_symmetry_multiplicity
 _atom_site_fract_x
 _atom_site_fract_y
 _atom_site_fract_z
 _atom_site_occupancy
  Rb  Rb0  1  0.72258090  0.77741910  0.77741910  1
  Rb  Rb1  1  0.27741910  0.22258090  0.22258090  1
  S  S2  1  1.00000000  0.15474220  0.84525780  1
  S  S3  1  0.00000000  0.84525780  0.15474220  1
