# generated using pymatgen
data_Tb2Ti2O7
_symmetry_space_group_name_H-M   'P 1'
_cell_length_a   7.01342087
_cell_length_b   7.01341978
_cell_length_c   12.73197362
_cell_angle_alpha   89.99984081
_cell_angle_beta   89.99998625
_cell_angle_gamma   89.99985940
_symmetry_Int_Tables_number   1
_chemical_formula_structural   Tb2Ti2O7
_chemical_formula_sum   'Tb8 Ti8 O28'
_cell_volume   626.26114161
_cell_formula_units_Z   4
loop_
 _symmetry_equiv_pos_site_id
 _symmetry_equiv_pos_as_xyz
  1  'x, y, z'
loop_
 _atom_site_type_symbol
 _atom_site_label
 _atom_site_symmetry_multiplicity
 _atom_site_fract_x
 _atom_site_fract_y
 _atom_site_fract_z
 _atom_site_occupancy
  Tb  Tb0  1  0.13016787  0.63999889  0.13567531  1
  Tb  Tb1  1  0.14000890  0.36982644  0.88567672  1
  Tb  Tb2  1  0.35999081  0.86983372  0.36432313  1
  Tb  Tb3  1  0.36983993  0.14000336  0.11432472  1
  Tb  Tb4  1  0.63016313  0.85999199  0.61431995  1
  Tb  Tb5  1  0.64001566  0.13016533  0.86432258  1
  Tb  Tb6  1  0.85999373  0.63016889  0.38567303  1
  Tb  Tb7  1  0.86983560  0.35999760  0.63567454  1
  Ti  Ti8  1  0.10025375  0.85183523  0.61294532  1
  Ti  Ti9  1  0.14816825  0.89974135  0.88705909  1
  Ti  Ti10  1  0.35183616  0.39974470  0.36295176  1
  Ti  Ti11  1  0.39974498  0.35183429  0.63706505  1
  Ti  Ti12  1  0.60025752  0.64816426  0.13704820  1
  Ti  Ti13  1  0.64817173  0.60025322  0.86293376  1
  Ti  Ti14  1  0.85183713  0.10025415  0.38706549  1
  Ti  Ti15  1  0.89974838  0.14815530  0.11294957  1
  O  O16  1  0.04247731  0.92525201  0.38729891  1
  O  O17  1  0.07361581  0.33394463  0.07115121  1
  O  O18  1  0.07474889  0.95751510  0.11270019  1
  O  O19  1  0.13713758  0.66995404  0.95694207  1
  O  O20  1  0.16604732  0.57361183  0.32114359  1
  O  O21  1  0.16996187  0.36285987  0.70694509  1
  O  O22  1  0.17820295  0.82182796  0.75000098  1
  O  O23  1  0.32181992  0.32180042  0.50000771  1
  O  O24  1  0.33003180  0.86284883  0.54305758  1
  O  O25  1  0.33396781  0.07360226  0.92885530  1
  O  O26  1  0.36284574  0.16997225  0.29305767  1
  O  O27  1  0.42526571  0.45751829  0.13729617  1
  O  O28  1  0.42638871  0.83395013  0.17885618  1
  O  O29  1  0.45752526  0.42525698  0.86269141  1
  O  O30  1  0.54247677  0.57473982  0.36270732  1
  O  O31  1  0.57360472  0.16603518  0.67885407  1
  O  O32  1  0.57474652  0.54247604  0.63730409  1
  O  O33  1  0.63715879  0.83003984  0.79305291  1
  O  O34  1  0.66603694  0.92639361  0.42885292  1
  O  O35  1  0.66997936  0.13713728  0.04305956  1
  O  O36  1  0.67819697  0.67817777  0.99999359  1
  O  O37  1  0.82179969  0.17817217  0.25000644  1
  O  O38  1  0.83002669  0.63714517  0.20694006  1
  O  O39  1  0.83396871  0.42639616  0.82114337  1
  O  O40  1  0.86285764  0.33003899  0.45694282  1
  O  O41  1  0.92525868  0.04248132  0.61269604  1
  O  O42  1  0.92639166  0.66604651  0.57113952  1
  O  O43  1  0.95752867  0.07473681  0.88729600  1
