# generated using pymatgen
data_Li2V(PO4)2
_symmetry_space_group_name_H-M   'P 1'
_cell_length_a   4.62424483
_cell_length_b   5.07779675
_cell_length_c   13.95086080
_cell_angle_alpha   84.11610852
_cell_angle_beta   90.00000000
_cell_angle_gamma   62.91320713
_symmetry_Int_Tables_number   1
_chemical_formula_structural   Li2V(PO4)2
_chemical_formula_sum   'Li4 V2 P4 O16'
_cell_volume   289.71039074
_cell_formula_units_Z   2
loop_
 _symmetry_equiv_pos_site_id
 _symmetry_equiv_pos_as_xyz
  1  'x, y, z'
loop_
 _atom_site_type_symbol
 _atom_site_label
 _atom_site_symmetry_multiplicity
 _atom_site_fract_x
 _atom_site_fract_y
 _atom_site_fract_z
 _atom_site_occupancy
  Li  Li0  1  0.92858954  0.02351701  0.76158054  1
  Li  Li1  1  0.04789245  0.02351701  0.26158054  1
  Li  Li2  1  0.62907370  0.67005433  0.66281345  1
  Li  Li3  1  0.70087097  0.67005433  0.16281345  1
  V  V4  1  0.00694366  0.99343942  0.99479248  1
  V  V5  1  0.99961692  0.99343942  0.49479248  1
  P  P6  1  0.32719480  0.31820899  0.61292170  1
  P  P7  1  0.35459720  0.31820899  0.11292170  1
  P  P8  1  0.68453603  0.67468068  0.38276006  1
  P  P9  1  0.64078329  0.67468068  0.88276006  1
  O  O10  1  0.20835226  0.20848472  0.03271783  1
  O  O11  1  0.26352609  0.88217516  0.87970360  1
  O  O12  1  0.15268144  0.34055778  0.19999716  1
  O  O13  1  0.43136368  0.77805423  0.46406194  1
  O  O14  1  0.03353926  0.62526143  0.57845711  1
  O  O15  1  0.72241449  0.08127946  0.12505831  1
  O  O16  1  0.19630506  0.08127946  0.62505831  1
  O  O17  1  0.70324297  0.35150240  0.91313930  1
  O  O18  1  0.77437365  0.71482439  0.78642253  1
  O  O19  1  0.79058109  0.77805423  0.96406194  1
  O  O20  1  0.51080096  0.71482439  0.28642253  1
  O  O21  1  0.85429876  0.88217516  0.37970360  1
  O  O22  1  0.94525462  0.35150240  0.41313930  1
  O  O23  1  0.50676078  0.34055778  0.69999716  1
  O  O24  1  0.58316202  0.20848472  0.53271783  1
  O  O25  1  0.34119932  0.62526143  0.07845711  1
