# generated using pymatgen
data_IrCl3
_symmetry_space_group_name_H-M   'P 1'
_cell_length_a   6.22368855
_cell_length_b   6.22368844
_cell_length_c   11.18358341
_cell_angle_alpha   100.85992023
_cell_angle_beta   100.85987997
_cell_angle_gamma   108.84119215
_symmetry_Int_Tables_number   1
_chemical_formula_structural   IrCl3
_chemical_formula_sum   'Ir4 Cl12'
_cell_volume   387.88684961
_cell_formula_units_Z   4
loop_
 _symmetry_equiv_pos_site_id
 _symmetry_equiv_pos_as_xyz
  1  'x, y, z'
loop_
 _atom_site_type_symbol
 _atom_site_label
 _atom_site_symmetry_multiplicity
 _atom_site_fract_x
 _atom_site_fract_y
 _atom_site_fract_z
 _atom_site_occupancy
  Ir  Ir0  1  0.79132680  0.04132454  0.08266347  1
  Ir  Ir1  1  0.20867320  0.95867546  0.91733653  1
  Ir  Ir2  1  0.04132491  0.79132714  0.58266346  1
  Ir  Ir3  1  0.95867509  0.20867286  0.41733654  1
  Cl  Cl4  1  0.65723638  0.90721958  0.24999744  1
  Cl  Cl5  1  0.81947790  0.03721351  0.57385819  1
  Cl  Cl6  1  0.18052210  0.96278649  0.42614181  1
  Cl  Cl7  1  0.25438939  0.53665784  0.57386743  1
  Cl  Cl8  1  0.03721297  0.81947730  0.07385784  1
  Cl  Cl9  1  0.09277991  0.34276330  0.25000265  1
  Cl  Cl10  1  0.34276362  0.09278042  0.75000256  1
  Cl  Cl11  1  0.90722009  0.65723670  0.74999735  1
  Cl  Cl12  1  0.96278703  0.18052270  0.92614216  1
  Cl  Cl13  1  0.74561061  0.46334216  0.42613257  1
  Cl  Cl14  1  0.53665819  0.25438970  0.07386753  1
  Cl  Cl15  1  0.46334181  0.74561030  0.92613247  1
