# generated using pymatgen
data_Re3Se4Cl
_symmetry_space_group_name_H-M   'P 1'
_cell_length_a   6.70080286
_cell_length_b   6.74862614
_cell_length_c   9.21517037
_cell_angle_alpha   77.07007368
_cell_angle_beta   70.78960958
_cell_angle_gamma   86.20145143
_symmetry_Int_Tables_number   1
_chemical_formula_structural   Re3Se4Cl
_chemical_formula_sum   'Re6 Se8 Cl2'
_cell_volume   383.52662921
_cell_formula_units_Z   2
loop_
 _symmetry_equiv_pos_site_id
 _symmetry_equiv_pos_as_xyz
  1  'x, y, z'
loop_
 _atom_site_type_symbol
 _atom_site_label
 _atom_site_symmetry_multiplicity
 _atom_site_fract_x
 _atom_site_fract_y
 _atom_site_fract_z
 _atom_site_occupancy
  Re  Re0  1  0.89408971  0.75399312  0.53543631  1
  Re  Re1  1  0.84682625  0.37382541  0.71049657  1
  Re  Re2  1  0.15317375  0.62617459  0.28950343  1
  Re  Re3  1  0.77135563  0.46128637  0.43461611  1
  Re  Re4  1  0.10591029  0.24600688  0.46456369  1
  Re  Re5  1  0.22864437  0.53871363  0.56538389  1
  Se  Se6  1  0.82364234  0.82288205  0.27439683  1
  Se  Se7  1  0.17635766  0.17711795  0.72560317  1
  Se  Se8  1  0.52870252  0.59500020  0.68417906  1
  Se  Se9  1  0.71930003  0.10245645  0.60460701  1
  Se  Se10  1  0.28069997  0.89754355  0.39539299  1
  Se  Se11  1  0.47129748  0.40499980  0.31582094  1
  Se  Se12  1  0.03195434  0.33696046  0.20387771  1
  Se  Se13  1  0.96804566  0.66303954  0.79612229  1
  Cl  Cl14  1  0.34195216  0.78193745  0.02696912  1
  Cl  Cl15  1  0.65804784  0.21806255  0.97303088  1
