# generated using pymatgen
data_AlPO4
_symmetry_space_group_name_H-M   'P 1'
_cell_length_a   5.17722413
_cell_length_b   5.17722414
_cell_length_c   5.17722414
_cell_angle_alpha   87.93822639
_cell_angle_beta   121.19741963
_cell_angle_gamma   121.19741958
_symmetry_Int_Tables_number   1
_chemical_formula_structural   AlPO4
_chemical_formula_sum   'Al1 P1 O4'
_cell_volume   96.28050568
_cell_formula_units_Z   1
loop_
 _symmetry_equiv_pos_site_id
 _symmetry_equiv_pos_as_xyz
  1  'x, y, z'
loop_
 _atom_site_type_symbol
 _atom_site_label
 _atom_site_symmetry_multiplicity
 _atom_site_fract_x
 _atom_site_fract_y
 _atom_site_fract_z
 _atom_site_occupancy
  O  O0  1  0.63852818  0.04009561  0.86333765  1
  O  O1  1  0.17675796  0.13666235  0.77519052  1
  O  O2  1  0.36147182  0.22480948  0.40156744  1
  O  O3  1  0.82324204  0.59843256  0.95990439  1
  Al  Al4  1  0.00000000  0.00000000  0.00000000  1
  P  P5  1  0.50000000  0.25000000  0.75000000  1
