# generated using pymatgen
data_PtCl2
_symmetry_space_group_name_H-M   'P 1'
_cell_length_a   8.62061374
_cell_length_b   8.62061374
_cell_length_c   8.62061373
_cell_angle_alpha   108.12969158
_cell_angle_beta   108.12969157
_cell_angle_gamma   108.12969153
_symmetry_Int_Tables_number   1
_chemical_formula_structural   PtCl2
_chemical_formula_sum   'Pt6 Cl12'
_cell_volume   516.20821103
_cell_formula_units_Z   6
loop_
 _symmetry_equiv_pos_site_id
 _symmetry_equiv_pos_as_xyz
  1  'x, y, z'
loop_
 _atom_site_type_symbol
 _atom_site_label
 _atom_site_symmetry_multiplicity
 _atom_site_fract_x
 _atom_site_fract_y
 _atom_site_fract_z
 _atom_site_occupancy
  Cl  Cl0  1  0.23522923  0.00000000  0.76477077  1
  Cl  Cl1  1  0.00000000  0.76477077  0.23522923  1
  Cl  Cl2  1  0.76477077  0.23522923  0.00000000  1
  Cl  Cl3  1  0.76477077  0.00000000  0.23522923  1
  Cl  Cl4  1  0.00000000  0.23522923  0.76477077  1
  Cl  Cl5  1  0.23522923  0.76477077  0.00000000  1
  Cl  Cl6  1  0.37388176  0.13747898  0.37388176  1
  Cl  Cl7  1  0.37388176  0.37388176  0.13747898  1
  Cl  Cl8  1  0.13747898  0.37388176  0.37388176  1
  Cl  Cl9  1  0.86252102  0.62611824  0.62611824  1
  Cl  Cl10  1  0.62611824  0.86252102  0.62611824  1
  Cl  Cl11  1  0.62611824  0.62611824  0.86252102  1
  Pt  Pt12  1  0.92896870  0.92896870  0.68779023  1
  Pt  Pt13  1  0.92896870  0.68779023  0.92896870  1
  Pt  Pt14  1  0.68779023  0.92896870  0.92896870  1
  Pt  Pt15  1  0.31220977  0.07103130  0.07103130  1
  Pt  Pt16  1  0.07103130  0.07103130  0.31220977  1
  Pt  Pt17  1  0.07103130  0.31220977  0.07103130  1
