# generated using pymatgen
data_Nb2PS10
_symmetry_space_group_name_H-M   'P 1'
_cell_length_a   7.38666314
_cell_length_b   13.13291224
_cell_length_c   14.13431902
_cell_angle_alpha   90.00000000
_cell_angle_beta   90.00000000
_cell_angle_gamma   90.00000000
_symmetry_Int_Tables_number   1
_chemical_formula_structural   Nb2PS10
_chemical_formula_sum   'Nb8 P4 S40'
_cell_volume   1371.14765575
_cell_formula_units_Z   4
loop_
 _symmetry_equiv_pos_site_id
 _symmetry_equiv_pos_as_xyz
  1  'x, y, z'
loop_
 _atom_site_type_symbol
 _atom_site_label
 _atom_site_symmetry_multiplicity
 _atom_site_fract_x
 _atom_site_fract_y
 _atom_site_fract_z
 _atom_site_occupancy
  Nb  Nb0  1  0.93753278  0.91743233  0.25376292  1
  Nb  Nb1  1  0.93168218  0.20823240  0.24791974  1
  Nb  Nb2  1  0.06246722  0.58256767  0.75376292  1
  Nb  Nb3  1  0.06246722  0.41743233  0.24623708  1
  Nb  Nb4  1  0.06831782  0.29176760  0.74791974  1
  Nb  Nb5  1  0.93168218  0.79176760  0.75208026  1
  Nb  Nb6  1  0.93753278  0.08256767  0.74623708  1
  Nb  Nb7  1  0.06831782  0.70823240  0.25208026  1
  P  P8  1  0.62542087  0.05736075  0.15405558  1
  P  P9  1  0.37457913  0.44263925  0.65405558  1
  P  P10  1  0.37457913  0.55736075  0.34594442  1
  P  P11  1  0.62542087  0.94263925  0.84594442  1
  S  S12  1  0.82333303  0.34843954  0.35517207  1
  S  S13  1  0.85938480  0.56515794  0.18794200  1
  S  S14  1  0.10949741  0.56501435  0.12529178  1
  S  S15  1  0.89050259  0.06501435  0.37470822  1
  S  S16  1  0.54930392  0.42962905  0.53306891  1
  S  S17  1  0.83377277  0.22161759  0.63573839  1
  S  S18  1  0.83377277  0.77838241  0.36426161  1
  S  S19  1  0.14061520  0.06515794  0.31205800  1
  S  S20  1  0.57766021  0.80986670  0.77725486  1
  S  S21  1  0.58507264  0.07253102  0.77249524  1
  S  S22  1  0.85938480  0.43484206  0.81205800  1
  S  S23  1  0.89826735  0.05985069  0.12132796  1
  S  S24  1  0.89826735  0.94014931  0.87867204  1
  S  S25  1  0.10173265  0.44014931  0.62132796  1
  S  S26  1  0.10173265  0.55985069  0.37867204  1
  S  S27  1  0.45069608  0.92962905  0.96693109  1
  S  S28  1  0.82333303  0.65156046  0.64482793  1
  S  S29  1  0.16622723  0.27838241  0.13573839  1
  S  S30  1  0.89050259  0.93498565  0.62529178  1
  S  S31  1  0.42233979  0.69013330  0.27725486  1
  S  S32  1  0.07921296  0.29879156  0.38492552  1
  S  S33  1  0.92078704  0.79879156  0.11507448  1
  S  S34  1  0.42233979  0.30986670  0.72274514  1
  S  S35  1  0.90954439  0.32896790  0.10936884  1
  S  S36  1  0.58507264  0.92746898  0.22750476  1
  S  S37  1  0.41492736  0.57253102  0.72750476  1
  S  S38  1  0.45069608  0.07037095  0.03306891  1
  S  S39  1  0.10949741  0.43498565  0.87470822  1
  S  S40  1  0.90954439  0.67103210  0.89063116  1
  S  S41  1  0.16622723  0.72161759  0.86426161  1
  S  S42  1  0.09045561  0.17103210  0.60936884  1
  S  S43  1  0.41492736  0.42746898  0.27249524  1
  S  S44  1  0.07921296  0.70120844  0.61507448  1
  S  S45  1  0.54930392  0.57037095  0.46693109  1
  S  S46  1  0.14061520  0.93484206  0.68794200  1
  S  S47  1  0.17666697  0.84843954  0.14482793  1
  S  S48  1  0.09045561  0.82896790  0.39063116  1
  S  S49  1  0.57766021  0.19013330  0.22274514  1
  S  S50  1  0.17666697  0.15156046  0.85517207  1
  S  S51  1  0.92078704  0.20120844  0.88492552  1
