# generated using pymatgen
data_Zn3BPO7
_symmetry_space_group_name_H-M   'P 1'
_cell_length_a   4.96153772
_cell_length_b   8.14329059
_cell_length_c   8.14329075
_cell_angle_alpha   105.49518627
_cell_angle_beta   107.55058151
_cell_angle_gamma   107.55058688
_symmetry_Int_Tables_number   1
_chemical_formula_structural   Zn3BPO7
_chemical_formula_sum   'Zn6 B2 P2 O14'
_cell_volume   274.91573684
_cell_formula_units_Z   2
loop_
 _symmetry_equiv_pos_site_id
 _symmetry_equiv_pos_as_xyz
  1  'x, y, z'
loop_
 _atom_site_type_symbol
 _atom_site_label
 _atom_site_symmetry_multiplicity
 _atom_site_fract_x
 _atom_site_fract_y
 _atom_site_fract_z
 _atom_site_occupancy
  Zn  Zn0  1  0.23003328  0.35225607  0.84977607  1
  Zn  Zn1  1  0.23003328  0.84977607  0.35225607  1
  Zn  Zn2  1  0.53616734  0.79676518  0.06745964  1
  Zn  Zn3  1  0.53620598  0.29995334  0.51838846  1
  Zn  Zn4  1  0.53620598  0.51838846  0.29995334  1
  Zn  Zn5  1  0.53616734  0.06745964  0.79676518  1
  B  B6  1  0.89917087  0.48329410  0.05592335  1
  B  B7  1  0.89917087  0.05592335  0.48329410  1
  P  P8  1  0.14121778  0.06082026  0.06082026  1
  P  P9  1  0.23318624  0.60622425  0.60622425  1
  O  O10  1  0.85314839  0.33731118  0.90031219  1
  O  O11  1  0.27192307  0.80267773  0.60308760  1
  O  O12  1  0.19891606  0.60452750  0.19010581  1
  O  O13  1  0.23968513  0.10880951  0.91094793  1
  O  O14  1  0.19891606  0.19010581  0.60452750  1
  O  O15  1  0.64702076  0.07536030  0.51457780  1
  O  O16  1  0.27192307  0.60308760  0.80267773  1
  O  O17  1  0.77941143  0.98109441  0.98109441  1
  O  O18  1  0.28040832  0.24060590  0.24060590  1
  O  O19  1  0.89943821  0.46156830  0.46156830  1
  O  O20  1  0.85314839  0.90031219  0.33731118  1
  O  O21  1  0.23968513  0.91094793  0.10880951  1
  O  O22  1  0.48379626  0.55529312  0.55529312  1
  O  O23  1  0.64702076  0.51457780  0.07536030  1
