# generated using pymatgen
data_CaTaNO2
_symmetry_space_group_name_H-M   'P 1'
_cell_length_a   5.59674424
_cell_length_b   5.71500845
_cell_length_c   7.85787585
_cell_angle_alpha   90.00000000
_cell_angle_beta   90.00000000
_cell_angle_gamma   90.00000000
_symmetry_Int_Tables_number   1
_chemical_formula_structural   CaTaNO2
_chemical_formula_sum   'Ca4 Ta4 N4 O8'
_cell_volume   251.33762143
_cell_formula_units_Z   4
loop_
 _symmetry_equiv_pos_site_id
 _symmetry_equiv_pos_as_xyz
  1  'x, y, z'
loop_
 _atom_site_type_symbol
 _atom_site_label
 _atom_site_symmetry_multiplicity
 _atom_site_fract_x
 _atom_site_fract_y
 _atom_site_fract_z
 _atom_site_occupancy
  Ca  Ca0  1  0.24227097  0.45072184  0.50000000  1
  Ca  Ca1  1  0.75772903  0.95072184  0.50000000  1
  Ca  Ca2  1  0.73211821  0.03748583  0.00000000  1
  Ca  Ca3  1  0.26788179  0.53748583  0.00000000  1
  Ta  Ta4  1  0.76538282  0.48804266  0.25405268  1
  Ta  Ta5  1  0.23461718  0.98804266  0.25405268  1
  Ta  Ta6  1  0.23461718  0.98804266  0.74594732  1
  Ta  Ta7  1  0.76538282  0.48804266  0.74594732  1
  N  N8  1  0.96430213  0.21632437  0.70403285  1
  N  N9  1  0.03569787  0.71632437  0.29596715  1
  N  N10  1  0.96430213  0.21632437  0.29596715  1
  N  N11  1  0.03569787  0.71632437  0.70403285  1
  O  O12  1  0.83204529  0.48195675  0.00000000  1
  O  O13  1  0.53764019  0.79611802  0.20198803  1
  O  O14  1  0.34674829  0.02906549  0.50000000  1
  O  O15  1  0.16795471  0.98195675  0.00000000  1
  O  O16  1  0.65325171  0.52906549  0.50000000  1
  O  O17  1  0.53764019  0.79611802  0.79801197  1
  O  O18  1  0.46235981  0.29611802  0.20198803  1
  O  O19  1  0.46235981  0.29611802  0.79801197  1
