# generated using pymatgen
data_Nb2CoO6
_symmetry_space_group_name_H-M   'P 1'
_cell_length_a   4.83296648
_cell_length_b   4.83296648
_cell_length_c   9.20530117
_cell_angle_alpha   90.00000000
_cell_angle_beta   90.00000000
_cell_angle_gamma   90.00000000
_symmetry_Int_Tables_number   1
_chemical_formula_structural   Nb2CoO6
_chemical_formula_sum   'Nb4 Co2 O12'
_cell_volume   215.01342039
_cell_formula_units_Z   2
loop_
 _symmetry_equiv_pos_site_id
 _symmetry_equiv_pos_as_xyz
  1  'x, y, z'
loop_
 _atom_site_type_symbol
 _atom_site_label
 _atom_site_symmetry_multiplicity
 _atom_site_fract_x
 _atom_site_fract_y
 _atom_site_fract_z
 _atom_site_occupancy
  Nb  Nb0  1  0.00000000  0.00000000  0.00283983  1
  Nb  Nb1  1  0.00000000  0.00000000  0.66382717  1
  Nb  Nb2  1  0.50000000  0.50000000  0.16382717  1
  Nb  Nb3  1  0.50000000  0.50000000  0.50283983  1
  Co  Co4  1  0.00000000  0.00000000  0.33333300  1
  Co  Co5  1  0.50000000  0.50000000  0.83333300  1
  O  O6  1  0.20375549  0.79624451  0.15855038  1
  O  O7  1  0.18986271  0.81013729  0.83333300  1
  O  O8  1  0.20375549  0.79624451  0.50811662  1
  O  O9  1  0.29624451  0.29624451  0.00811662  1
  O  O10  1  0.31013729  0.31013729  0.33333300  1
  O  O11  1  0.29624451  0.29624451  0.65855038  1
  O  O12  1  0.70375549  0.70375549  0.00811662  1
  O  O13  1  0.68986271  0.68986271  0.33333300  1
  O  O14  1  0.70375549  0.70375549  0.65855038  1
  O  O15  1  0.81013729  0.18986271  0.83333300  1
  O  O16  1  0.79624451  0.20375549  0.15855038  1
  O  O17  1  0.79624451  0.20375549  0.50811662  1
