# generated using pymatgen
data_SrLi4N2
_symmetry_space_group_name_H-M   'P 1'
_cell_length_a   3.82971167
_cell_length_b   3.82971167
_cell_length_c   13.80031470
_cell_angle_alpha   97.97578128
_cell_angle_beta   97.97578128
_cell_angle_gamma   89.99999995
_symmetry_Int_Tables_number   1
_chemical_formula_structural   SrLi4N2
_chemical_formula_sum   'Sr2 Li8 N4'
_cell_volume   198.46984046
_cell_formula_units_Z   2
loop_
 _symmetry_equiv_pos_site_id
 _symmetry_equiv_pos_as_xyz
  1  'x, y, z'
loop_
 _atom_site_type_symbol
 _atom_site_label
 _atom_site_symmetry_multiplicity
 _atom_site_fract_x
 _atom_site_fract_y
 _atom_site_fract_z
 _atom_site_occupancy
  Li  Li0  1  0.72872250  0.97872250  0.95744500  1
  Li  Li1  1  0.47872250  0.22872250  0.45744500  1
  Li  Li2  1  0.05282901  0.30282901  0.60565803  1
  Li  Li3  1  0.80282901  0.55282901  0.10565803  1
  Li  Li4  1  0.94717099  0.69717099  0.39434197  1
  Li  Li5  1  0.27127750  0.02127750  0.04255500  1
  Li  Li6  1  0.52127750  0.77127750  0.54255500  1
  Li  Li7  1  0.19717099  0.44717099  0.89434197  1
  N  N8  1  0.19302869  0.94302869  0.88605738  1
  N  N9  1  0.44302869  0.69302869  0.38605738  1
  N  N10  1  0.80697131  0.05697131  0.11394262  1
  N  N11  1  0.55697131  0.30697131  0.61394262  1
  Sr  Sr12  1  0.62500000  0.87500000  0.75000000  1
  Sr  Sr13  1  0.37500000  0.12500000  0.25000000  1
