# generated using pymatgen
data_NbS3
_symmetry_space_group_name_H-M   'P 1'
_cell_length_a   5.03627388
_cell_length_b   6.81471483
_cell_length_c   9.60749225
_cell_angle_alpha   90.04044803
_cell_angle_beta   96.82731773
_cell_angle_gamma   89.98668522
_symmetry_Int_Tables_number   1
_chemical_formula_structural   NbS3
_chemical_formula_sum   'Nb4 S12'
_cell_volume   327.39826859
_cell_formula_units_Z   4
loop_
 _symmetry_equiv_pos_site_id
 _symmetry_equiv_pos_as_xyz
  1  'x, y, z'
loop_
 _atom_site_type_symbol
 _atom_site_label
 _atom_site_symmetry_multiplicity
 _atom_site_fract_x
 _atom_site_fract_y
 _atom_site_fract_z
 _atom_site_occupancy
  Nb  Nb0  1  0.28193733  0.14929787  0.64093451  1
  Nb  Nb1  1  0.28436665  0.59803745  0.64947653  1
  Nb  Nb2  1  0.71806267  0.85070213  0.35906549  1
  Nb  Nb3  1  0.71563335  0.40196255  0.35052347  1
  S  S4  1  0.47188959  0.63173210  0.17407711  1
  S  S5  1  0.24071502  0.86609119  0.45853719  1
  S  S6  1  0.23596149  0.38531356  0.43977948  1
  S  S7  1  0.76403851  0.61468644  0.56022052  1
  S  S8  1  0.12839666  0.36877397  0.82960323  1
  S  S9  1  0.75928498  0.13390881  0.54146281  1
  S  S10  1  0.48069921  0.12261429  0.19903146  1
  S  S11  1  0.51930079  0.87738571  0.80096854  1
  S  S12  1  0.52811041  0.36826790  0.82592289  1
  S  S13  1  0.87160334  0.63122603  0.17039677  1
  S  S14  1  0.88092331  0.12285221  0.19816540  1
  S  S15  1  0.11907669  0.87714779  0.80183460  1
