# generated using pymatgen
data_NaFeP2O7
_symmetry_space_group_name_H-M   'P 1'
_cell_length_a   4.91218458
_cell_length_b   7.15880781
_cell_length_c   8.30394557
_cell_angle_alpha   90.00000000
_cell_angle_beta   90.00000000
_cell_angle_gamma   107.82183596
_symmetry_Int_Tables_number   1
_chemical_formula_structural   NaFeP2O7
_chemical_formula_sum   'Na2 Fe2 P4 O14'
_cell_volume   277.99864012
_cell_formula_units_Z   2
loop_
 _symmetry_equiv_pos_site_id
 _symmetry_equiv_pos_as_xyz
  1  'x, y, z'
loop_
 _atom_site_type_symbol
 _atom_site_label
 _atom_site_symmetry_multiplicity
 _atom_site_fract_x
 _atom_site_fract_y
 _atom_site_fract_z
 _atom_site_occupancy
  Na  Na0  1  0.22591773  0.73226902  0.90654157  1
  Na  Na1  1  0.77408227  0.26773098  0.40654157  1
  Fe  Fe2  1  0.21819286  0.73371755  0.49962183  1
  Fe  Fe3  1  0.78180714  0.26628245  0.99962183  1
  P  P4  1  0.38903707  0.50455689  0.19094129  1
  P  P5  1  0.22555046  0.10423632  0.76965459  1
  P  P6  1  0.77444954  0.89576368  0.26965459  1
  P  P7  1  0.61096293  0.49544311  0.69094129  1
  O  O8  1  0.03460101  0.83589238  0.31667798  1
  O  O9  1  0.14579550  0.91399520  0.67117942  1
  O  O10  1  0.16145303  0.46255053  0.05899220  1
  O  O11  1  0.26677037  0.50889973  0.36008138  1
  O  O12  1  0.41695643  0.62617673  0.68300648  1
  O  O13  1  0.59127118  0.91433905  0.41611748  1
  O  O14  1  0.57974756  0.73050234  0.14734478  1
  O  O15  1  0.42025244  0.26949766  0.64734478  1
  O  O16  1  0.40872882  0.08566095  0.91611748  1
  O  O17  1  0.58304357  0.37382327  0.18300648  1
  O  O18  1  0.73322963  0.49110027  0.86008138  1
  O  O19  1  0.83854697  0.53744947  0.55899220  1
  O  O20  1  0.85420450  0.08600480  0.17117942  1
  O  O21  1  0.96539899  0.16410762  0.81667798  1
