# generated using pymatgen
data_Na2MgAlF7
_symmetry_space_group_name_H-M   'P 1'
_cell_length_a   7.15909496
_cell_length_b   7.23747674
_cell_length_c   7.23747696
_cell_angle_alpha   61.92698132
_cell_angle_beta   60.35761227
_cell_angle_gamma   60.35761046
_symmetry_Int_Tables_number   1
_chemical_formula_structural   Na2MgAlF7
_chemical_formula_sum   'Na4 Mg2 Al2 F14'
_cell_volume   270.29737606
_cell_formula_units_Z   2
loop_
 _symmetry_equiv_pos_site_id
 _symmetry_equiv_pos_as_xyz
  1  'x, y, z'
loop_
 _atom_site_type_symbol
 _atom_site_label
 _atom_site_symmetry_multiplicity
 _atom_site_fract_x
 _atom_site_fract_y
 _atom_site_fract_z
 _atom_site_occupancy
  Na  Na0  1  0.41407945  0.47288579  0.02711421  1
  Na  Na1  1  0.91407945  0.52711421  0.97288579  1
  Na  Na2  1  0.92014590  1.00000000  0.00000000  1
  Na  Na3  1  0.42014590  0.50000000  0.50000000  1
  Mg  Mg4  1  0.90970721  0.00186122  0.49813878  1
  Mg  Mg5  1  0.40970721  0.99813878  0.50186122  1
  Al  Al6  1  0.40979699  0.00000000  1.00000000  1
  Al  Al7  1  0.90979699  0.50000000  0.50000000  1
  F  F8  1  0.20729973  0.31782422  0.45625767  1
  F  F9  1  0.98138163  0.68217578  0.54374233  1
  F  F10  1  0.70729973  0.95625767  0.81782422  1
  F  F11  1  0.48138163  0.04374233  0.18217578  1
  F  F12  1  0.83736432  0.31751257  0.45950125  1
  F  F13  1  0.61437814  0.68248743  0.54049875  1
  F  F14  1  0.33736432  0.95950125  0.81751257  1
  F  F15  1  0.11437814  0.04049875  0.18248743  1
  F  F16  1  0.15898200  0.88743679  0.61256321  1
  F  F17  1  0.65898200  0.11256321  0.38743679  1
  F  F18  1  0.32469422  0.30587902  0.86649618  1
  F  F19  1  0.49706941  0.69412098  0.13350382  1
  F  F20  1  0.82469422  0.36649618  0.80587902  1
  F  F21  1  0.99706941  0.63350382  0.19412098  1
