# generated using pymatgen
data_Li3SbS4
_symmetry_space_group_name_H-M   'P 1'
_cell_length_a   8.02942046
_cell_length_b   6.92094730
_cell_length_c   6.47720987
_cell_angle_alpha   90.00000000
_cell_angle_beta   90.00000000
_cell_angle_gamma   90.00000000
_symmetry_Int_Tables_number   1
_chemical_formula_structural   Li3SbS4
_chemical_formula_sum   'Li6 Sb2 S8'
_cell_volume   359.94629827
_cell_formula_units_Z   2
loop_
 _symmetry_equiv_pos_site_id
 _symmetry_equiv_pos_as_xyz
  1  'x, y, z'
loop_
 _atom_site_type_symbol
 _atom_site_label
 _atom_site_symmetry_multiplicity
 _atom_site_fract_x
 _atom_site_fract_y
 _atom_site_fract_z
 _atom_site_occupancy
  Li  Li0  1  0.00000000  0.15349286  0.50296076  1
  Li  Li1  1  0.24629129  0.32428261  0.99685335  1
  Li  Li2  1  0.25370871  0.67571739  0.49685335  1
  Li  Li3  1  0.50000000  0.84650714  0.00296076  1
  Li  Li4  1  0.74629129  0.67571739  0.49685335  1
  Li  Li5  1  0.75370871  0.32428261  0.99685335  1
  Sb  Sb6  1  0.00000000  0.82630360  0.99552762  1
  Sb  Sb7  1  0.50000000  0.17369640  0.49552762  1
  S  S8  1  0.00000000  0.14793963  0.11953323  1
  S  S9  1  0.00000000  0.81986281  0.62928666  1
  S  S10  1  0.24162730  0.66490246  0.11504301  1
  S  S11  1  0.25837170  0.33509754  0.61504301  1
  S  S12  1  0.50000000  0.18013719  0.12928666  1
  S  S13  1  0.50000000  0.85206037  0.61953323  1
  S  S14  1  0.74162730  0.33509754  0.61504301  1
  S  S15  1  0.75837270  0.66490246  0.11504301  1
