# generated using pymatgen
data_K3IO5
_symmetry_space_group_name_H-M   'P 1'
_cell_length_a   6.31949033
_cell_length_b   6.31949033
_cell_length_c   8.33673630
_cell_angle_alpha   90.00000000
_cell_angle_beta   90.00000000
_cell_angle_gamma   90.00000000
_symmetry_Int_Tables_number   1
_chemical_formula_structural   K3IO5
_chemical_formula_sum   'K6 I2 O10'
_cell_volume   332.93555099
_cell_formula_units_Z   2
loop_
 _symmetry_equiv_pos_site_id
 _symmetry_equiv_pos_as_xyz
  1  'x, y, z'
loop_
 _atom_site_type_symbol
 _atom_site_label
 _atom_site_symmetry_multiplicity
 _atom_site_fract_x
 _atom_site_fract_y
 _atom_site_fract_z
 _atom_site_occupancy
  K  K0  1  0.00000000  0.00000000  0.50000100  1
  K  K1  1  0.50000100  0.50000100  0.50000100  1
  K  K2  1  0.00000000  0.00000000  0.00000000  1
  K  K3  1  0.50000100  0.50000100  0.00000000  1
  K  K4  1  0.00000000  0.50000100  0.21841244  1
  K  K5  1  0.50000100  0.00000000  0.78158656  1
  I  I6  1  0.00000000  0.50000100  0.74253027  1
  I  I7  1  0.50000100  0.00000000  0.25746973  1
  O  O8  1  0.79431148  0.29431148  0.78861216  1
  O  O9  1  0.20568752  0.70568952  0.78861216  1
  O  O10  1  0.29431148  0.20568752  0.21138784  1
  O  O11  1  0.70568952  0.79431148  0.21138784  1
  O  O12  1  0.70568952  0.20568752  0.21138784  1
  O  O13  1  0.29431148  0.79431148  0.21138784  1
  O  O14  1  0.79431148  0.70568952  0.78861216  1
  O  O15  1  0.20568752  0.29431148  0.78861216  1
  O  O16  1  0.00000000  0.50000100  0.52378789  1
  O  O17  1  0.50000100  0.00000000  0.47621211  1
