# generated using pymatgen
data_Ce5Zr3O16
_symmetry_space_group_name_H-M   'P 1'
_cell_length_a   7.60421838
_cell_length_b   7.60421838
_cell_length_c   5.40638712
_cell_angle_alpha   90.00000000
_cell_angle_beta   90.00000000
_cell_angle_gamma   89.45288973
_symmetry_Int_Tables_number   1
_chemical_formula_structural   Ce5Zr3O16
_chemical_formula_sum   'Ce5 Zr3 O16'
_cell_volume   312.60541803
_cell_formula_units_Z   1
loop_
 _symmetry_equiv_pos_site_id
 _symmetry_equiv_pos_as_xyz
  1  'x, y, z'
loop_
 _atom_site_type_symbol
 _atom_site_label
 _atom_site_symmetry_multiplicity
 _atom_site_fract_x
 _atom_site_fract_y
 _atom_site_fract_z
 _atom_site_occupancy
  Ce  Ce0  1  0.00000000  0.50000000  0.99131149  1
  Ce  Ce1  1  0.24290935  0.75709065  0.50000000  1
  Ce  Ce2  1  0.50000000  0.00000000  0.00868851  1
  Ce  Ce3  1  0.75709065  0.24290935  0.50000000  1
  Ce  Ce4  1  0.50000000  0.50000000  -0.00000000  1
  Zr  Zr5  1  0.00000000  0.00000000  -0.00000000  1
  Zr  Zr6  1  0.25590264  0.25590264  0.50000000  1
  Zr  Zr7  1  0.74409736  0.74409736  0.50000000  1
  O  O8  1  0.25218521  0.02553654  0.29092482  1
  O  O9  1  0.97815576  0.23542361  0.20292583  1
  O  O10  1  0.02553654  0.25218521  0.70907518  1
  O  O11  1  0.23542361  0.97815576  0.79707417  1
  O  O12  1  0.24120206  0.47693193  0.27095912  1
  O  O13  1  0.02184424  0.76457639  0.20292583  1
  O  O14  1  0.97446346  0.74781479  0.70907518  1
  O  O15  1  0.25450387  0.51629630  0.76216824  1
  O  O16  1  0.74781479  0.97446346  0.29092482  1
  O  O17  1  0.51629630  0.25450387  0.23783276  1
  O  O18  1  0.47693193  0.24120206  0.72904088  1
  O  O19  1  0.76457639  0.02184424  0.79707317  1
  O  O20  1  0.75879794  0.52306807  0.27095912  1
  O  O21  1  0.48370370  0.74549613  0.23783276  1
  O  O22  1  0.52306807  0.75879794  0.72904088  1
  O  O23  1  0.74549613  0.48370370  0.76216724  1
