# generated using pymatgen
data_Lu3AlO6
_symmetry_space_group_name_H-M   'P 1'
_cell_length_a   6.94820733
_cell_length_b   6.94820733
_cell_length_c   5.27533129
_cell_angle_alpha   90.00000000
_cell_angle_beta   90.00000000
_cell_angle_gamma   77.10588210
_symmetry_Int_Tables_number   1
_chemical_formula_structural   Lu3AlO6
_chemical_formula_sum   'Lu6 Al2 O12'
_cell_volume   248.25826588
_cell_formula_units_Z   2
loop_
 _symmetry_equiv_pos_site_id
 _symmetry_equiv_pos_as_xyz
  1  'x, y, z'
loop_
 _atom_site_type_symbol
 _atom_site_label
 _atom_site_symmetry_multiplicity
 _atom_site_fract_x
 _atom_site_fract_y
 _atom_site_fract_z
 _atom_site_occupancy
  Lu  Lu0  1  0.29886257  0.91269874  0.47581807  1
  Lu  Lu1  1  0.08730126  0.70113743  0.97581807  1
  Lu  Lu2  1  0.39851455  0.39851455  0.42763317  1
  Lu  Lu3  1  0.60148545  0.60148545  0.92763217  1
  Lu  Lu4  1  0.70113743  0.08730126  0.97581807  1
  Lu  Lu5  1  0.91269874  0.29886257  0.47581807  1
  Al  Al6  1  0.19489646  0.19489646  0.01237135  1
  Al  Al7  1  0.80510354  0.80510354  0.51237135  1
  O  O8  1  0.35652647  0.67829054  0.20174667  1
  O  O9  1  0.32170946  0.64347353  0.70174667  1
  O  O10  1  0.10855818  0.42020802  0.18212860  1
  O  O11  1  0.57979198  0.89144182  0.68212860  1
  O  O12  1  0.04375788  0.04375788  0.14814716  1
  O  O13  1  0.21352444  0.21352444  0.67781965  1
  O  O14  1  0.78647556  0.78647556  0.17781965  1
  O  O15  1  0.95624212  0.95624212  0.64814716  1
  O  O16  1  0.42020802  0.10855818  0.18212860  1
  O  O17  1  0.89144182  0.57979198  0.68212860  1
  O  O18  1  0.67829054  0.35652647  0.20174667  1
  O  O19  1  0.64347353  0.32170946  0.70174667  1
