# generated using pymatgen
data_Na2MgSiO4
_symmetry_space_group_name_H-M   'P 1'
_cell_length_a   5.36355010
_cell_length_b   7.08203470
_cell_length_c   11.09409297
_cell_angle_alpha   90.00000000
_cell_angle_beta   90.00000000
_cell_angle_gamma   90.00000000
_symmetry_Int_Tables_number   1
_chemical_formula_structural   Na2MgSiO4
_chemical_formula_sum   'Na8 Mg4 Si4 O16'
_cell_volume   421.40743431
_cell_formula_units_Z   4
loop_
 _symmetry_equiv_pos_site_id
 _symmetry_equiv_pos_as_xyz
  1  'x, y, z'
loop_
 _atom_site_type_symbol
 _atom_site_label
 _atom_site_symmetry_multiplicity
 _atom_site_fract_x
 _atom_site_fract_y
 _atom_site_fract_z
 _atom_site_occupancy
  O  O0  1  0.39134317  0.10216936  0.38881927  1
  O  O1  1  0.60865683  0.60216936  0.61118073  1
  O  O2  1  0.10865683  0.10216936  0.88881927  1
  O  O3  1  0.89134317  0.60216936  0.11118073  1
  O  O4  1  0.75449745  0.16141354  0.55085892  1
  O  O5  1  0.24550255  0.66141354  0.44914108  1
  O  O6  1  0.74550255  0.16141354  0.05085892  1
  O  O7  1  0.25449745  0.66141354  0.94914108  1
  O  O8  1  0.84012406  0.94204020  0.35506485  1
  O  O9  1  0.15987594  0.44204020  0.64493515  1
  O  O10  1  0.65987594  0.94204020  0.85506485  1
  O  O11  1  0.27793476  0.82312598  0.17186110  1
  O  O12  1  0.77793476  0.32312598  0.32813890  1
  O  O13  1  0.22206524  0.82312598  0.67186110  1
  O  O14  1  0.72206524  0.32312598  0.82813890  1
  O  O15  1  0.34012406  0.44204020  0.14493515  1
  Na  Na16  1  0.26544998  0.13032224  0.58739427  1
  Na  Na17  1  0.29245953  0.38414333  0.84219357  1
  Na  Na18  1  0.79245953  0.88414333  0.65780643  1
  Na  Na19  1  0.20754047  0.38414333  0.34219357  1
  Na  Na20  1  0.73455002  0.63032224  0.41260573  1
  Na  Na21  1  0.23455002  0.13032224  0.08739427  1
  Na  Na22  1  0.76544998  0.63032224  0.91260573  1
  Na  Na23  1  0.70754047  0.88414333  0.15780643  1
  Mg  Mg24  1  0.19803388  0.88035618  0.34267814  1
  Mg  Mg25  1  0.30196612  0.88035618  0.84267814  1
  Mg  Mg26  1  0.80196612  0.38035618  0.65732186  1
  Mg  Mg27  1  0.69803388  0.38035618  0.15732186  1
  Si  Si28  1  0.69544417  0.13242916  0.40540484  1
  Si  Si29  1  0.30455583  0.63242916  0.59459516  1
  Si  Si30  1  0.80455583  0.13242916  0.90540484  1
  Si  Si31  1  0.19544417  0.63242916  0.09459516  1
