# generated using pymatgen
data_KP(HO2)2
_symmetry_space_group_name_H-M   'P 1'
_cell_length_a   7.32833396
_cell_length_b   7.74001315
_cell_length_c   7.69678557
_cell_angle_alpha   90.00000000
_cell_angle_beta   90.00000000
_cell_angle_gamma   90.00000000
_symmetry_Int_Tables_number   1
_chemical_formula_structural   KP(HO2)2
_chemical_formula_sum   'K4 P4 H8 O16'
_cell_volume   436.57246240
_cell_formula_units_Z   4
loop_
 _symmetry_equiv_pos_site_id
 _symmetry_equiv_pos_as_xyz
  1  'x, y, z'
loop_
 _atom_site_type_symbol
 _atom_site_label
 _atom_site_symmetry_multiplicity
 _atom_site_fract_x
 _atom_site_fract_y
 _atom_site_fract_z
 _atom_site_occupancy
  K  K0  1  0.58034482  0.43724975  0.49743643  1
  K  K1  1  0.41965518  0.93724975  0.00256357  1
  K  K2  1  0.91965518  0.56275025  0.99743643  1
  K  K3  1  0.08034482  0.06275025  0.50256357  1
  P  P4  1  0.42650474  0.48450323  0.01777148  1
  P  P5  1  0.57349526  0.98450323  0.48222852  1
  P  P6  1  0.92650474  0.01549677  0.98222852  1
  P  P7  1  0.07349526  0.51549677  0.51777148  1
  H  H8  1  0.13503253  0.18044261  0.10385962  1
  H  H9  1  0.36496747  0.81955739  0.60385962  1
  H  H10  1  0.31726567  0.32217547  0.22706194  1
  H  H11  1  0.81726567  0.17782453  0.77293806  1
  H  H12  1  0.63503253  0.31955739  0.89614038  1
  H  H13  1  0.86496747  0.68044261  0.39614038  1
  H  H14  1  0.68273433  0.82217547  0.27293806  1
  H  H15  1  0.18273433  0.67782453  0.72706194  1
  O  O16  1  0.96293035  0.60012606  0.35666542  1
  O  O17  1  0.82453161  0.18718884  0.90183238  1
  O  O18  1  0.05748221  0.94853791  0.84735720  1
  O  O19  1  0.03706965  0.10012606  0.14333458  1
  O  O20  1  0.17546839  0.68718884  0.59816762  1
  O  O21  1  0.44251779  0.05146209  0.34735720  1
  O  O22  1  0.55748221  0.55146209  0.15264280  1
  O  O23  1  0.71268005  0.10516104  0.56069809  1
  O  O24  1  0.67546839  0.81281116  0.40183238  1
  O  O25  1  0.32453161  0.31281116  0.09816762  1
  O  O26  1  0.53706965  0.39987394  0.85666542  1
  O  O27  1  0.21268005  0.39483896  0.43930191  1
  O  O28  1  0.46293035  0.89987394  0.64333458  1
  O  O29  1  0.78731995  0.89483896  0.06069809  1
  O  O30  1  0.28731995  0.60516104  0.93930191  1
  O  O31  1  0.94251779  0.44853791  0.65264280  1
