# generated using pymatgen
data_K3BN2
_symmetry_space_group_name_H-M   'P 1'
_cell_length_a   6.50028889
_cell_length_b   8.81715509
_cell_length_c   9.08009469
_cell_angle_alpha   90.00000000
_cell_angle_beta   111.24425305
_cell_angle_gamma   90.00000000
_symmetry_Int_Tables_number   1
_chemical_formula_structural   K3BN2
_chemical_formula_sum   'K12 B4 N8'
_cell_volume   485.05170180
_cell_formula_units_Z   4
loop_
 _symmetry_equiv_pos_site_id
 _symmetry_equiv_pos_as_xyz
  1  'x, y, z'
loop_
 _atom_site_type_symbol
 _atom_site_label
 _atom_site_symmetry_multiplicity
 _atom_site_fract_x
 _atom_site_fract_y
 _atom_site_fract_z
 _atom_site_occupancy
  K  K0  1  0.25266957  0.95681256  0.99169713  1
  K  K1  1  0.74733043  0.45681256  0.50830287  1
  K  K2  1  0.74733043  0.04318744  0.00830287  1
  K  K3  1  0.25266957  0.54318744  0.49169713  1
  K  K4  1  0.23693489  0.53114483  0.88232356  1
  K  K5  1  0.76306511  0.03114483  0.61767644  1
  K  K6  1  0.76306511  0.46885517  0.11767644  1
  K  K7  1  0.23693489  0.96885517  0.38232356  1
  K  K8  1  0.74479665  0.70490116  0.81357810  1
  K  K9  1  0.25520335  0.20490116  0.68642190  1
  K  K10  1  0.25520335  0.29509884  0.18642190  1
  K  K11  1  0.74479665  0.79509884  0.31357810  1
  B  B12  1  0.21153286  0.82325968  0.67846415  1
  B  B13  1  0.78846714  0.32325968  0.82153585  1
  B  B14  1  0.78846714  0.17674032  0.32153585  1
  B  B15  1  0.21153286  0.67674032  0.17846415  1
  N  N16  1  0.39941045  0.90806663  0.72431635  1
  N  N17  1  0.60058955  0.40806663  0.77568365  1
  N  N18  1  0.60058955  0.09193337  0.27568365  1
  N  N19  1  0.39941045  0.59193337  0.22431635  1
  N  N20  1  0.02382196  0.73831757  0.63319079  1
  N  N21  1  0.97617804  0.23831757  0.86680921  1
  N  N22  1  0.97617804  0.26168243  0.36680921  1
  N  N23  1  0.02382196  0.76168243  0.13319079  1
