# generated using pymatgen
data_K2V(PO4)2
_symmetry_space_group_name_H-M   'P 1'
_cell_length_a   5.53662208
_cell_length_b   8.42097021
_cell_length_c   8.42097021
_cell_angle_alpha   90.00000000
_cell_angle_beta   90.00000000
_cell_angle_gamma   90.00000000
_symmetry_Int_Tables_number   1
_chemical_formula_structural   K2V(PO4)2
_chemical_formula_sum   'K4 V2 P4 O16'
_cell_volume   392.61703804
_cell_formula_units_Z   2
loop_
 _symmetry_equiv_pos_site_id
 _symmetry_equiv_pos_as_xyz
  1  'x, y, z'
loop_
 _atom_site_type_symbol
 _atom_site_label
 _atom_site_symmetry_multiplicity
 _atom_site_fract_x
 _atom_site_fract_y
 _atom_site_fract_z
 _atom_site_occupancy
  O  O0  1  0.00503595  0.00000000  0.50000000  1
  O  O1  1  0.00503595  0.50000000  0.00000000  1
  O  O2  1  0.99390895  0.92443547  0.21484000  1
  O  O3  1  0.99390895  0.07556453  0.78516000  1
  O  O4  1  0.99390895  0.21484000  0.07556453  1
  O  O5  1  0.99390895  0.78516000  0.92443547  1
  O  O6  1  0.99390895  0.28516000  0.57556453  1
  O  O7  1  0.99390895  0.42443547  0.28516000  1
  O  O8  1  0.99390895  0.57556453  0.71484000  1
  O  O9  1  0.99390895  0.71484000  0.42443547  1
  O  O10  1  0.39715571  0.50000000  0.50000000  1
  O  O11  1  0.39715571  0.00000000  0.00000000  1
  O  O12  1  0.38543749  0.37332273  0.12667727  1
  O  O13  1  0.38543749  0.87332273  0.37332273  1
  O  O14  1  0.38543749  0.12667727  0.62667727  1
  O  O15  1  0.38543749  0.62667727  0.87332273  1
  P  P16  1  0.11444066  0.62815730  0.87184270  1
  P  P17  1  0.11444066  0.12815730  0.62815730  1
  P  P18  1  0.11444066  0.87184270  0.37184270  1
  P  P19  1  0.11444066  0.37184270  0.12815730  1
  K  K20  1  0.62796324  0.82832083  0.67167917  1
  K  K21  1  0.62796324  0.32832083  0.82832083  1
  K  K22  1  0.62796324  0.67167917  0.17167917  1
  K  K23  1  0.62796324  0.17167917  0.32832083  1
  V  V24  1  0.10218976  0.50000000  0.50000000  1
  V  V25  1  0.10218976  0.00000000  0.00000000  1
