# generated using pymatgen
data_GaTeI7
_symmetry_space_group_name_H-M   'P 1'
_cell_length_a   7.70189548
_cell_length_b   7.43582171
_cell_length_c   16.97928684
_cell_angle_alpha   90.00000000
_cell_angle_beta   104.78467847
_cell_angle_gamma   90.00000000
_symmetry_Int_Tables_number   1
_chemical_formula_structural   GaTeI7
_chemical_formula_sum   'Ga2 Te2 I14'
_cell_volume   940.20780008
_cell_formula_units_Z   2
loop_
 _symmetry_equiv_pos_site_id
 _symmetry_equiv_pos_as_xyz
  1  'x, y, z'
loop_
 _atom_site_type_symbol
 _atom_site_label
 _atom_site_symmetry_multiplicity
 _atom_site_fract_x
 _atom_site_fract_y
 _atom_site_fract_z
 _atom_site_occupancy
  Ga  Ga0  1  0.28744936  0.50398262  0.80722758  1
  Ga  Ga1  1  0.28744936  0.49601738  0.30722758  1
  Te  Te2  1  0.00316358  0.90224496  0.65448711  1
  Te  Te3  1  0.00316358  0.09775504  0.15448711  1
  I  I4  1  0.31247739  0.15954361  0.81542473  1
  I  I5  1  0.31247739  0.84045639  0.31542473  1
  I  I6  1  0.51343703  0.64704910  0.93164985  1
  I  I7  1  0.51343703  0.35295090  0.43164985  1
  I  I8  1  0.35541103  0.62600860  0.67383207  1
  I  I9  1  0.35541103  0.37399140  0.17383207  1
  I  I10  1  0.96926757  0.62519735  0.80710314  1
  I  I11  1  0.96926757  0.37480265  0.30710314  1
  I  I12  1  0.78406662  0.66628309  0.54396904  1
  I  I13  1  0.78406662  0.33371691  0.04396904  1
  I  I14  1  0.72701082  0.11373235  0.68100522  1
  I  I15  1  0.72701082  0.88626765  0.18100522  1
  I  I16  1  0.11401660  0.11095450  0.54125127  1
  I  I17  1  0.11401660  0.88904550  0.04125127  1
