# generated using pymatgen
data_H8N2O
_symmetry_space_group_name_H-M   'P 1'
_cell_length_a   10.05825877
_cell_length_b   9.05584365
_cell_length_c   4.42880124
_cell_angle_alpha   90.00000000
_cell_angle_beta   86.39559902
_cell_angle_gamma   90.00000000
_symmetry_Int_Tables_number   1
_chemical_formula_structural   H8N2O
_chemical_formula_sum   'H32 N8 O4'
_cell_volume   402.60390487
_cell_formula_units_Z   4
loop_
 _symmetry_equiv_pos_site_id
 _symmetry_equiv_pos_as_xyz
  1  'x, y, z'
loop_
 _atom_site_type_symbol
 _atom_site_label
 _atom_site_symmetry_multiplicity
 _atom_site_fract_x
 _atom_site_fract_y
 _atom_site_fract_z
 _atom_site_occupancy
  H  H0  1  0.46021995  0.80777148  0.50210961  1
  H  H1  1  0.25989485  0.91921781  0.59441128  1
  H  H2  1  0.37485231  0.66183504  0.53319885  1
  H  H3  1  0.60920911  0.61570737  0.25426509  1
  H  H4  1  0.24072657  0.88662619  0.95287085  1
  H  H5  1  0.37094859  0.55278883  0.00248129  1
  H  H6  1  0.53700558  0.81355384  0.97397782  1
  H  H7  1  0.17326447  0.66037447  0.25344649  1
  H  H8  1  0.07904235  0.52124154  0.36436291  1
  H  H9  1  0.97308707  0.36427147  0.54298572  1
  H  H10  1  0.34495527  0.18579587  0.25674458  1
  H  H11  1  0.13827002  0.12950260  0.35620737  1
  H  H12  1  0.91290053  0.07478007  0.24866246  1
  H  H13  1  0.25423285  0.45756758  0.84703805  1
  H  H14  1  0.99302819  0.31718168  0.89515640  1
  H  H15  1  0.15306531  0.09863897  0.00558875  1
  H  H16  1  0.57904235  0.97875846  0.86436291  1
  H  H17  1  0.47308707  0.13572853  0.04298572  1
  H  H18  1  0.49302819  0.18281832  0.39515640  1
  H  H19  1  0.65306531  0.40136103  0.50558875  1
  H  H20  1  0.75423285  0.04243242  0.34703805  1
  H  H21  1  0.63827002  0.37049740  0.85620737  1
  H  H22  1  0.41290053  0.42521993  0.74866246  1
  H  H23  1  0.84495527  0.31420413  0.75674458  1
  H  H24  1  0.96021995  0.69222852  0.00210961  1
  H  H25  1  0.10920911  0.88429263  0.75426509  1
  H  H26  1  0.75989485  0.58078219  0.09441128  1
  H  H27  1  0.74072657  0.61337381  0.45287085  1
  H  H28  1  0.67326447  0.83962553  0.75344649  1
  H  H29  1  0.03700558  0.68644616  0.47397782  1
  H  H30  1  0.87485231  0.83816496  0.03319885  1
  H  H31  1  0.87094859  0.94721117  0.50248129  1
  N  N32  1  0.07601593  0.62800376  0.29022757  1
  N  N33  1  0.43164573  0.12639951  0.25907456  1
  N  N34  1  0.93164573  0.37360049  0.75907456  1
  N  N35  1  0.57601593  0.87199624  0.79022757  1
  N  N36  1  0.69658866  0.55959487  0.28099851  1
  N  N37  1  0.84480371  0.99282296  0.30275564  1
  N  N38  1  0.34480371  0.50717704  0.80275564  1
  N  N39  1  0.19658866  0.94040513  0.78099851  1
  O  O40  1  0.40116766  0.74247157  0.38536831  1
  O  O41  1  0.11984029  0.17366004  0.16278589  1
  O  O42  1  0.61984029  0.32633996  0.66278589  1
  O  O43  1  0.90116766  0.75752843  0.88536831  1
