# generated using pymatgen
data_Tl4SiS4
_symmetry_space_group_name_H-M   'P 1'
_cell_length_a   7.80755769
_cell_length_b   8.75744310
_cell_length_c   8.75744310
_cell_angle_alpha   84.38294727
_cell_angle_beta   72.29888639
_cell_angle_gamma   72.29888639
_symmetry_Int_Tables_number   1
_chemical_formula_structural   Tl4SiS4
_chemical_formula_sum   'Tl8 Si2 S8'
_cell_volume   543.41784502
_cell_formula_units_Z   2
loop_
 _symmetry_equiv_pos_site_id
 _symmetry_equiv_pos_as_xyz
  1  'x, y, z'
loop_
 _atom_site_type_symbol
 _atom_site_label
 _atom_site_symmetry_multiplicity
 _atom_site_fract_x
 _atom_site_fract_y
 _atom_site_fract_z
 _atom_site_occupancy
  Si  Si0  1  0.02794918  0.61746999  0.20225810  1
  Si  Si1  1  0.52794918  0.20225810  0.61746999  1
  S  S2  1  0.69975228  0.09476750  0.77102908  1
  S  S3  1  0.70441632  0.23402646  0.38132442  1
  S  S4  1  0.20441632  0.38132442  0.23402646  1
  S  S5  1  0.84333731  0.71148413  0.43057079  1
  S  S6  1  0.35639757  0.05546430  0.60662586  1
  S  S7  1  0.85639757  0.60662586  0.05546430  1
  S  S8  1  0.34333731  0.43057079  0.71148413  1
  S  S9  1  0.19975228  0.77102908  0.09476750  1
  Tl  Tl10  1  0.07698064  0.78472937  0.80829319  1
  Tl  Tl11  1  0.57698064  0.80829319  0.78472937  1
  Tl  Tl12  1  0.03701262  0.96486360  0.42321680  1
  Tl  Tl13  1  0.53701262  0.42321680  0.96486360  1
  Tl  Tl14  1  0.07813848  0.26298086  0.98973174  1
  Tl  Tl15  1  0.57813848  0.98973174  0.26298086  1
  Tl  Tl16  1  0.00721560  0.36846529  0.58109850  1
  Tl  Tl17  1  0.50721560  0.58109850  0.36846529  1
