# generated using pymatgen
data_BaBe2Si2O7
_symmetry_space_group_name_H-M   'P 1'
_cell_length_a   4.73654132
_cell_length_b   9.91903586
_cell_length_c   11.85051759
_cell_angle_alpha   90.00000000
_cell_angle_beta   90.00000000
_cell_angle_gamma   90.00000000
_symmetry_Int_Tables_number   1
_chemical_formula_structural   BaBe2Si2O7
_chemical_formula_sum   'Ba4 Be8 Si8 O28'
_cell_volume   556.76010736
_cell_formula_units_Z   4
loop_
 _symmetry_equiv_pos_site_id
 _symmetry_equiv_pos_as_xyz
  1  'x, y, z'
loop_
 _atom_site_type_symbol
 _atom_site_label
 _atom_site_symmetry_multiplicity
 _atom_site_fract_x
 _atom_site_fract_y
 _atom_site_fract_z
 _atom_site_occupancy
  Ba  Ba0  1  0.74913197  0.15108800  0.24815754  1
  Ba  Ba1  1  0.25086803  0.84891200  0.74815754  1
  Ba  Ba2  1  0.75086803  0.65108800  0.24815754  1
  Ba  Ba3  1  0.24913197  0.34891200  0.74815754  1
  Be  Be4  1  0.20706536  0.66310241  0.99843460  1
  Be  Be5  1  0.70706536  0.83689759  0.49843460  1
  Be  Be6  1  0.79293464  0.33689759  0.49843460  1
  Be  Be7  1  0.70726089  0.83671427  0.99772320  1
  Be  Be8  1  0.29273911  0.16328573  0.49772320  1
  Be  Be9  1  0.20726089  0.66328573  0.49772320  1
  Be  Be10  1  0.79273911  0.33671427  0.99772320  1
  Be  Be11  1  0.29293464  0.16310241  0.99843460  1
  Si  Si12  1  0.70438479  0.58911316  0.61977843  1
  Si  Si13  1  0.29578852  0.41104114  0.37637908  1
  Si  Si14  1  0.20438479  0.91088684  0.11977843  1
  Si  Si15  1  0.79578852  0.08895886  0.87637908  1
  Si  Si16  1  0.29561521  0.41088684  0.11977843  1
  Si  Si17  1  0.20421148  0.91104114  0.37637908  1
  Si  Si18  1  0.79561521  0.08911316  0.61977843  1
  Si  Si19  1  0.70421148  0.58895886  0.87637908  1
  O  O20  1  0.63429801  0.18928814  0.96665569  1
  O  O21  1  0.28475679  0.06955489  0.11075711  1
  O  O22  1  0.36570199  0.81071186  0.46665569  1
  O  O23  1  0.86570199  0.68928814  0.96665569  1
  O  O24  1  0.63415830  0.18949007  0.52952541  1
  O  O25  1  0.21524321  0.56955489  0.11075711  1
  O  O26  1  0.13567072  0.11101046  0.61047234  1
  O  O27  1  0.71561170  0.93029850  0.88536462  1
  O  O28  1  0.69949692  0.14324056  0.74810696  1
  O  O29  1  0.28438830  0.06970150  0.38536462  1
  O  O30  1  0.78475679  0.43044511  0.61075711  1
  O  O31  1  0.36410350  0.61084985  0.88564503  1
  O  O32  1  0.30050308  0.85675944  0.24810696  1
  O  O33  1  0.13429801  0.31071186  0.46665569  1
  O  O34  1  0.63567072  0.38898954  0.11047234  1
  O  O35  1  0.78438830  0.43029850  0.88536462  1
  O  O36  1  0.13589650  0.11084985  0.88564503  1
  O  O37  1  0.21561170  0.56970150  0.38536462  1
  O  O38  1  0.80050308  0.64324056  0.74810696  1
  O  O39  1  0.71524321  0.93044511  0.61075711  1
  O  O40  1  0.36432928  0.61101046  0.61047234  1
  O  O41  1  0.86584170  0.68949007  0.52952541  1
  O  O42  1  0.19949692  0.35675944  0.24810696  1
  O  O43  1  0.86432928  0.88898954  0.11047234  1
  O  O44  1  0.63589650  0.38915015  0.38564503  1
  O  O45  1  0.36584170  0.81050993  0.02952541  1
  O  O46  1  0.86410350  0.88915015  0.38564503  1
  O  O47  1  0.13415830  0.31050993  0.02952541  1
