# generated using pymatgen
data_LiH3CO3
_symmetry_space_group_name_H-M   'P 1'
_cell_length_a   4.85877245
_cell_length_b   6.61532681
_cell_length_c   10.05621639
_cell_angle_alpha   90.00000000
_cell_angle_beta   90.00000000
_cell_angle_gamma   90.00000000
_symmetry_Int_Tables_number   1
_chemical_formula_structural   LiH3CO3
_chemical_formula_sum   'Li4 H12 C4 O12'
_cell_volume   323.23060440
_cell_formula_units_Z   4
loop_
 _symmetry_equiv_pos_site_id
 _symmetry_equiv_pos_as_xyz
  1  'x, y, z'
loop_
 _atom_site_type_symbol
 _atom_site_label
 _atom_site_symmetry_multiplicity
 _atom_site_fract_x
 _atom_site_fract_y
 _atom_site_fract_z
 _atom_site_occupancy
  Li  Li0  1  0.72982881  0.38087120  0.54852558  1
  Li  Li1  1  0.22982881  0.88087120  0.95147442  1
  Li  Li2  1  0.22982881  0.61912880  0.45147442  1
  Li  Li3  1  0.72982881  0.11912880  0.04852558  1
  H  H4  1  0.34250987  0.52385258  0.02263333  1
  H  H5  1  0.84250987  0.02385258  0.47736667  1
  H  H6  1  0.12394318  0.89437665  0.63029079  1
  H  H7  1  0.34250987  0.97614742  0.52263333  1
  H  H8  1  0.12463841  0.33858582  0.78518005  1
  H  H9  1  0.62394318  0.10562335  0.36970921  1
  H  H10  1  0.62463841  0.83858582  0.71481995  1
  H  H11  1  0.12394318  0.60562335  0.13029079  1
  H  H12  1  0.84250987  0.47614742  0.97736667  1
  H  H13  1  0.62463841  0.66141418  0.21481995  1
  H  H14  1  0.62394318  0.39437665  0.86970921  1
  H  H15  1  0.12463841  0.16141418  0.28518005  1
  C  C16  1  0.74688808  0.61314553  0.30249848  1
  C  C17  1  0.24688808  0.38685447  0.69750152  1
  C  C18  1  0.74688808  0.88685447  0.80249848  1
  C  C19  1  0.24688808  0.11314553  0.19750152  1
  O  O20  1  0.61793250  0.57756455  0.40956145  1
  O  O21  1  0.61793250  0.92243545  0.90956145  1
  O  O22  1  0.00593455  0.59927810  0.28798084  1
  O  O23  1  0.17352461  0.60630219  0.03312796  1
  O  O24  1  0.67352461  0.10630219  0.46687204  1
  O  O25  1  0.11793250  0.42243545  0.59043855  1
  O  O26  1  0.67352461  0.39369781  0.96687204  1
  O  O27  1  0.17352461  0.89369781  0.53312796  1
  O  O28  1  0.50593455  0.09927810  0.21201916  1
  O  O29  1  0.00593455  0.90072190  0.78798084  1
  O  O30  1  0.50593455  0.40072190  0.71201916  1
  O  O31  1  0.11793250  0.07756455  0.09043855  1
