# generated using pymatgen
data_AgH4WS4N
_symmetry_space_group_name_H-M   'P 1'
_cell_length_a   6.48008994
_cell_length_b   6.48008994
_cell_length_c   6.48008994
_cell_angle_alpha   102.04312578
_cell_angle_beta   102.04312578
_cell_angle_gamma   125.64097143
_symmetry_Int_Tables_number   1
_chemical_formula_structural   AgH4WS4N
_chemical_formula_sum   'Ag1 H4 W1 S4 N1'
_cell_volume   196.72060460
_cell_formula_units_Z   1
loop_
 _symmetry_equiv_pos_site_id
 _symmetry_equiv_pos_as_xyz
  1  'x, y, z'
loop_
 _atom_site_type_symbol
 _atom_site_label
 _atom_site_symmetry_multiplicity
 _atom_site_fract_x
 _atom_site_fract_y
 _atom_site_fract_z
 _atom_site_occupancy
  Ag  Ag0  1  0.75000000  0.25000000  0.50000000  1
  H  H1  1  0.38399964  0.50350764  0.08676542  1
  H  H2  1  0.41674222  0.29723422  0.91323458  1
  H  H3  1  0.70276578  0.61600036  0.11950800  1
  H  H4  1  0.49649236  0.58325778  0.88049200  1
  W  W5  1  0.25000000  0.75000000  0.50000000  1
  S  S6  1  0.25791901  0.83470814  0.18402328  1
  S  S7  1  0.65068486  0.07389573  0.81597672  1
  S  S8  1  0.92610427  0.74208099  0.57678913  1
  S  S9  1  0.16529186  0.34931514  0.42321087  1
  N  N10  1  0.50000000  0.50000000  0.00000000  1
