# generated using pymatgen
data_InGaSe3
_symmetry_space_group_name_H-M   'P 1'
_cell_length_a   7.16862127
_cell_length_b   7.16862139
_cell_length_c   19.21602508
_cell_angle_alpha   90.00000000
_cell_angle_beta   90.00000000
_cell_angle_gamma   119.99999940
_symmetry_Int_Tables_number   1
_chemical_formula_structural   InGaSe3
_chemical_formula_sum   'In6 Ga6 Se18'
_cell_volume   855.19562753
_cell_formula_units_Z   6
loop_
 _symmetry_equiv_pos_site_id
 _symmetry_equiv_pos_as_xyz
  1  'x, y, z'
loop_
 _atom_site_type_symbol
 _atom_site_label
 _atom_site_symmetry_multiplicity
 _atom_site_fract_x
 _atom_site_fract_y
 _atom_site_fract_z
 _atom_site_occupancy
  Ga  Ga0  1  0.66322050  0.68105144  0.14104087  1
  Ga  Ga1  1  0.98216906  0.66322050  0.30770787  1
  Ga  Ga2  1  0.68105144  0.01783094  0.97437387  1
  Ga  Ga3  1  0.31894856  0.98216906  0.47437387  1
  Ga  Ga4  1  0.01783094  0.33677950  0.80770787  1
  Ga  Ga5  1  0.33677950  0.31894856  0.64104087  1
  In  In6  1  0.32692382  0.32852300  0.00457859  1
  In  In7  1  0.99840081  0.32692382  0.17124559  1
  In  In8  1  0.32852300  0.00159919  0.83791159  1
  In  In9  1  0.67147700  0.99840081  0.33791159  1
  In  In10  1  0.00159919  0.67307618  0.67124559  1
  In  In11  1  0.67307618  0.67147700  0.50457859  1
  Se  Se12  1  0.36120634  0.31682822  0.15297520  1
  Se  Se13  1  0.04437812  0.36120634  0.31964220  1
  Se  Se14  1  0.31682822  0.95562188  0.98630820  1
  Se  Se15  1  0.68317178  0.04437812  0.48630820  1
  Se  Se16  1  0.95562188  0.63879366  0.81964220  1
  Se  Se17  1  0.63879366  0.68317178  0.65297520  1
  Se  Se18  1  0.96917995  0.34811444  0.02207762  1
  Se  Se19  1  0.62106551  0.96917995  0.18874462  1
  Se  Se20  1  0.34811444  0.37893449  0.85541062  1
  Se  Se21  1  0.65188556  0.62106551  0.35541062  1
  Se  Se22  1  0.37893449  0.03082005  0.68874462  1
  Se  Se23  1  0.03082005  0.65188556  0.52207762  1
  Se  Se24  1  1.00534182  0.70791626  0.17932772  1
  Se  Se25  1  0.29742556  1.00534182  0.34599472  1
  Se  Se26  1  0.70791626  0.70257444  0.01266072  1
  Se  Se27  1  0.29208374  0.29742556  0.51266072  1
  Se  Se28  1  0.70257444  -0.00534182  0.84599472  1
  Se  Se29  1  -0.00534182  0.29208374  0.67932772  1
