# generated using pymatgen
data_SrTaNO2
_symmetry_space_group_name_H-M   'P 1'
_cell_length_a   5.80719314
_cell_length_b   7.05208380
_cell_length_c   7.05208380
_cell_angle_alpha   109.93683129
_cell_angle_beta   89.96230964
_cell_angle_gamma   90.03769036
_symmetry_Int_Tables_number   1
_chemical_formula_structural   SrTaNO2
_chemical_formula_sum   'Sr4 Ta4 N4 O8'
_cell_volume   271.49438355
_cell_formula_units_Z   4
loop_
 _symmetry_equiv_pos_site_id
 _symmetry_equiv_pos_as_xyz
  1  'x, y, z'
loop_
 _atom_site_type_symbol
 _atom_site_label
 _atom_site_symmetry_multiplicity
 _atom_site_fract_x
 _atom_site_fract_y
 _atom_site_fract_z
 _atom_site_occupancy
  Sr  Sr0  1  0.49999595  0.25256259  0.25255651  1
  Sr  Sr1  1  0.49999595  0.74744349  0.74743741  1
  Sr  Sr2  1  0.99998581  0.00000413  0.49999941  1
  Sr  Sr3  1  0.99998581  0.50000059  0.99999587  1
  Ta  Ta4  1  0.52684572  0.24843160  0.75156840  1
  Ta  Ta5  1  0.47313798  0.75156840  0.24843160  1
  Ta  Ta6  1  0.99999894  0.00000331  0.99999669  1
  Ta  Ta7  1  0.99999236  0.50000366  0.49999634  1
  N  N8  1  0.76545252  0.36726358  0.63273642  1
  N  N9  1  0.72679807  0.11290965  0.88709035  1
  N  N10  1  0.27319732  0.88710410  0.11289590  1
  N  N11  1  0.23452633  0.63274453  0.36725547  1
  O  O12  1  0.78093573  0.86318328  0.13681672  1
  O  O13  1  0.73815133  0.61568278  0.38431722  1
  O  O14  1  0.49999007  0.50000286  0.99999437  1
  O  O15  1  0.49999007  0.00000563  0.49999714  1
  O  O16  1  0.26182779  0.38432534  0.61567466  1
  O  O17  1  0.21904900  0.13682713  0.86317287  1
  O  O18  1  0.99999213  0.75016530  0.75015294  1
  O  O19  1  0.99999213  0.24984706  0.24983470  1
