# generated using pymatgen
data_MgH2SO5
_symmetry_space_group_name_H-M   'P 1'
_cell_length_a   5.20429232
_cell_length_b   5.20429232
_cell_length_c   7.65709130
_cell_angle_alpha   106.49579926
_cell_angle_beta   106.49579928
_cell_angle_gamma   97.85182589
_symmetry_Int_Tables_number   1
_chemical_formula_structural   MgH2SO5
_chemical_formula_sum   'Mg2 H4 S2 O10'
_cell_volume   185.26983556
_cell_formula_units_Z   2
loop_
 _symmetry_equiv_pos_site_id
 _symmetry_equiv_pos_as_xyz
  1  'x, y, z'
loop_
 _atom_site_type_symbol
 _atom_site_label
 _atom_site_symmetry_multiplicity
 _atom_site_fract_x
 _atom_site_fract_y
 _atom_site_fract_z
 _atom_site_occupancy
  H  H0  1  0.63346662  0.04738869  0.20792490  1
  H  H1  1  0.45261131  0.86653338  0.29207510  1
  H  H2  1  0.36653338  0.95261131  0.79207510  1
  H  H3  1  0.54738869  0.13346662  0.70792490  1
  O  O4  1  0.83217585  0.72670230  0.60527143  1
  O  O5  1  0.77329770  0.66782415  0.89472857  1
  O  O6  1  0.16782415  0.27329770  0.39472857  1
  O  O7  1  0.22670230  0.33217585  0.10527143  1
  O  O8  1  0.21791546  0.67437933  0.84639970  1
  O  O9  1  0.82562067  0.28208454  0.65360030  1
  O  O10  1  0.78208454  0.32562067  0.15360030  1
  O  O11  1  0.17437933  0.71791546  0.34639970  1
  O  O12  1  0.38225820  0.11774180  0.75000000  1
  O  O13  1  0.61774180  0.88225820  0.25000000  1
  Mg  Mg14  1  0.50000000  0.50000000  0.00000000  1
  Mg  Mg15  1  0.00000000  0.00000000  0.50000000  1
  S  S16  1  0.91042668  0.58957332  0.75000000  1
  S  S17  1  0.08957332  0.41042668  0.25000000  1
