# generated using pymatgen
data_LiAlSi2H2O7
_symmetry_space_group_name_H-M   'P 1'
_cell_length_a   8.54245575
_cell_length_b   5.06753745
_cell_length_c   7.66106543
_cell_angle_alpha   87.19006367
_cell_angle_beta   111.51164014
_cell_angle_gamma   92.13902718
_symmetry_Int_Tables_number   1
_chemical_formula_structural   LiAlSi2H2O7
_chemical_formula_sum   'Li2 Al2 Si4 H4 O14'
_cell_volume   308.10259846
_cell_formula_units_Z   2
loop_
 _symmetry_equiv_pos_site_id
 _symmetry_equiv_pos_as_xyz
  1  'x, y, z'
loop_
 _atom_site_type_symbol
 _atom_site_label
 _atom_site_symmetry_multiplicity
 _atom_site_fract_x
 _atom_site_fract_y
 _atom_site_fract_z
 _atom_site_occupancy
  Li  Li0  1  0.29320703  0.31516496  0.18323825  1
  Li  Li1  1  0.71413016  0.83408896  0.88456468  1
  Al  Al2  1  0.39492931  0.83808576  0.93715771  1
  Al  Al3  1  0.90485377  0.33213024  0.90714927  1
  Si  Si4  1  0.10327077  0.82277264  0.07741397  1
  Si  Si5  1  0.14854872  0.90257864  0.49695899  1
  Si  Si6  1  0.91297216  0.35936486  0.48859732  1
  Si  Si7  1  0.62756380  0.33660842  0.07450093  1
  H  H8  1  0.23533692  0.34639237  0.48462133  1
  H  H9  1  0.71186734  0.46822583  0.61200054  1
  H  H10  1  0.60949936  0.88103393  0.52062364  1
  H  H11  1  0.47788235  0.78179818  0.61428338  1
  O  O12  1  0.26218474  0.69194525  0.04597140  1
  O  O13  1  0.08120323  0.13510544  0.00427099  1
  O  O14  1  0.13481748  0.76724785  0.29691167  1
  O  O15  1  0.04878954  0.59301279  0.54752551  1
  O  O16  1  0.31842797  0.85659253  0.69065068  1
  O  O17  1  0.46597908  0.14238004  0.05766921  1
  O  O18  1  0.24117550  0.19144603  0.41681519  1
  O  O19  1  0.73680366  0.20045221  0.96545077  1
  O  O20  1  0.92913869  0.66606260  0.95506020  1
  O  O21  1  0.80870474  0.34365452  0.64804502  1
  O  O22  1  0.98964657  0.06733768  0.51729129  1
  O  O23  1  0.74881014  0.38061106  0.29483462  1
  O  O24  1  0.57066202  0.63261502  0.98698722  1
  O  O25  1  0.59279697  0.74989420  0.60910823  1
