# generated using pymatgen
data_Hg(SbO3)2
_symmetry_space_group_name_H-M   'P 1'
_cell_length_a   5.35845157
_cell_length_b   5.35845158
_cell_length_c   5.05297640
_cell_angle_alpha   89.99736610
_cell_angle_beta   89.99736616
_cell_angle_gamma   119.99871220
_symmetry_Int_Tables_number   1
_chemical_formula_structural   Hg(SbO3)2
_chemical_formula_sum   'Hg1 Sb2 O6'
_cell_volume   125.64990245
_cell_formula_units_Z   1
loop_
 _symmetry_equiv_pos_site_id
 _symmetry_equiv_pos_as_xyz
  1  'x, y, z'
loop_
 _atom_site_type_symbol
 _atom_site_label
 _atom_site_symmetry_multiplicity
 _atom_site_fract_x
 _atom_site_fract_y
 _atom_site_fract_z
 _atom_site_occupancy
  Hg  Hg0  1  0.00000000  0.00000000  0.00000000  1
  Sb  Sb1  1  0.33336874  0.66663126  0.50000000  1
  Sb  Sb2  1  0.66663126  0.33336874  0.50000000  1
  O  O3  1  0.00000812  0.62898133  0.71843291  1
  O  O4  1  -0.00000812  0.37101867  0.28156709  1
  O  O5  1  0.37103123  0.37103123  0.71841207  1
  O  O6  1  0.62896877  0.62896877  0.28158793  1
  O  O7  1  0.37101867  -0.00000812  0.28156709  1
  O  O8  1  0.62898133  0.00000812  0.71843291  1
