# generated using pymatgen
data_Ca2WN2
_symmetry_space_group_name_H-M   'P 1'
_cell_length_a   5.32221500
_cell_length_b   6.82879735
_cell_length_c   6.26219630
_cell_angle_alpha   92.81009618
_cell_angle_beta   64.71853312
_cell_angle_gamma   115.72307967
_symmetry_Int_Tables_number   1
_chemical_formula_structural   Ca2WN2
_chemical_formula_sum   'Ca4 W2 N4'
_cell_volume   182.78765095
_cell_formula_units_Z   2
loop_
 _symmetry_equiv_pos_site_id
 _symmetry_equiv_pos_as_xyz
  1  'x, y, z'
loop_
 _atom_site_type_symbol
 _atom_site_label
 _atom_site_symmetry_multiplicity
 _atom_site_fract_x
 _atom_site_fract_y
 _atom_site_fract_z
 _atom_site_occupancy
  Ca  Ca0  1  0.88203642  0.22107463  0.41947716  1
  Ca  Ca1  1  0.12053971  0.78050074  0.57692587  1
  Ca  Ca2  1  0.74815405  0.66545981  0.21361739  1
  Ca  Ca3  1  0.25461621  0.33637183  0.78286509  1
  W  W4  1  0.53230364  0.18958152  0.06681430  1
  W  W5  1  0.47050314  0.81223680  0.92963838  1
  N  N6  1  0.42226857  0.22780952  0.38964585  1
  N  N7  1  0.58037750  0.77391505  0.60678242  1
  N  N8  1  0.78328323  0.39671779  0.79188283  1
  N  N9  1  0.21962752  0.60495431  0.20423871  1
