# generated using pymatgen
data_Li4VCr(TeO6)2
_symmetry_space_group_name_H-M   'P 1'
_cell_length_a   5.35738819
_cell_length_b   10.72983679
_cell_length_c   9.42295703
_cell_angle_alpha   28.45055395
_cell_angle_beta   51.84236368
_cell_angle_gamma   57.04011430
_symmetry_Int_Tables_number   1
_chemical_formula_structural   Li4VCr(TeO6)2
_chemical_formula_sum   'Li4 V1 Cr1 Te2 O12'
_cell_volume   202.90849018
_cell_formula_units_Z   1
loop_
 _symmetry_equiv_pos_site_id
 _symmetry_equiv_pos_as_xyz
  1  'x, y, z'
loop_
 _atom_site_type_symbol
 _atom_site_label
 _atom_site_symmetry_multiplicity
 _atom_site_fract_x
 _atom_site_fract_y
 _atom_site_fract_z
 _atom_site_occupancy
  Li  Li0  1  0.29407942  0.00202187  0.27596564  1
  Li  Li1  1  0.27500323  0.50035944  0.29474358  1
  Li  Li2  1  0.77901755  0.99747542  0.79272094  1
  Li  Li3  1  0.77398523  0.49918229  0.76593162  1
  V  V4  1  0.00035085  0.50299862  0.00588841  1
  Cr  Cr5  1  0.00316369  0.99943723  0.00078009  1
  Te  Te6  1  0.51133882  -0.00027790  0.50038840  1
  Te  Te7  1  0.49275585  0.50423531  0.50405119  1
  O  O8  1  0.36156858  0.30557028  0.12702757  1
  O  O9  1  0.24011330  0.12644646  0.61442047  1
  O  O10  1  0.13651936  0.33007420  0.71732441  1
  O  O11  1  0.87827091  0.19715661  0.23048545  1
  O  O12  1  0.38440199  0.79728275  0.12980997  1
  O  O13  1  0.75329716  0.38037718  0.35662894  1
  O  O14  1  0.23257893  0.62443615  0.63225649  1
  O  O15  1  0.62008179  0.18394592  0.86719015  1
  O  O16  1  0.12430983  0.80641814  0.74904334  1
  O  O17  1  0.86895579  0.68609225  0.24422157  1
  O  O18  1  0.71611818  0.87688503  0.38291811  1
  O  O19  1  0.62529053  0.67988373  0.87940466  1
