# generated using pymatgen
data_Mn(PO3)3
_symmetry_space_group_name_H-M   'P 1'
_cell_length_a   6.66403608
_cell_length_b   6.61702321
_cell_length_c   9.76574667
_cell_angle_alpha   89.99999998
_cell_angle_beta   87.40651804
_cell_angle_gamma   60.23309753
_symmetry_Int_Tables_number   1
_chemical_formula_structural   Mn(PO3)3
_chemical_formula_sum   'Mn2 P6 O18'
_cell_volume   373.30219121
_cell_formula_units_Z   2
loop_
 _symmetry_equiv_pos_site_id
 _symmetry_equiv_pos_as_xyz
  1  'x, y, z'
loop_
 _atom_site_type_symbol
 _atom_site_label
 _atom_site_symmetry_multiplicity
 _atom_site_fract_x
 _atom_site_fract_y
 _atom_site_fract_z
 _atom_site_occupancy
  Mn  Mn0  1  0.33360664  0.34439520  0.49995173  1
  Mn  Mn1  1  0.33360664  0.32199816  0.99995173  1
  O  O2  1  0.24076037  0.93937310  0.24311316  1
  O  O3  1  0.24076037  0.81986652  0.74311316  1
  O  O4  1  0.08204360  0.59405226  0.87672519  1
  O  O5  1  0.09016287  0.59309120  0.61280985  1
  O  O6  1  0.08204360  0.32390414  0.37672519  1
  O  O7  1  0.09016287  0.31674593  0.11280985  1
  O  O8  1  0.32098149  0.57698650  0.11627937  1
  O  O9  1  0.32806485  0.58778143  0.37877665  1
  O  O10  1  0.81458474  0.94956680  0.74512696  1
  O  O11  1  0.94487504  0.80771317  0.26192700  1
  O  O12  1  0.59648557  0.33586584  0.62569484  1
  O  O13  1  0.32098149  0.10203301  0.61627937  1
  O  O14  1  0.58402571  0.32193975  0.88946667  1
  O  O15  1  0.32806485  0.08415372  0.87877665  1
  O  O16  1  0.58402571  0.09403454  0.38946667  1
  O  O17  1  0.59648557  0.06764959  0.12569484  1
  O  O18  1  0.81458474  0.23584847  0.24512696  1
  O  O19  1  0.94487504  0.24741279  0.76192700  1
  P  P20  1  0.06285223  0.71996886  0.74780687  1
  P  P21  1  0.21914732  0.71006843  0.24960659  1
  P  P22  1  0.06285223  0.21717891  0.24780687  1
  P  P23  1  0.21914732  0.07078425  0.74960659  1
  P  P24  1  0.71564557  0.22674808  0.75270312  1
  P  P25  1  0.71564557  0.05760635  0.25270312  1
