# generated using pymatgen
data_Sr2MgH6
_symmetry_space_group_name_H-M   'P 1'
_cell_length_a   5.49244523
_cell_length_b   5.49243274
_cell_length_c   4.20671320
_cell_angle_alpha   89.99973761
_cell_angle_beta   90.00047016
_cell_angle_gamma   120.00077575
_symmetry_Int_Tables_number   1
_chemical_formula_structural   Sr2MgH6
_chemical_formula_sum   'Sr2 Mg1 H6'
_cell_volume   109.90074166
_cell_formula_units_Z   1
loop_
 _symmetry_equiv_pos_site_id
 _symmetry_equiv_pos_as_xyz
  1  'x, y, z'
loop_
 _atom_site_type_symbol
 _atom_site_label
 _atom_site_symmetry_multiplicity
 _atom_site_fract_x
 _atom_site_fract_y
 _atom_site_fract_z
 _atom_site_occupancy
  Sr  Sr0  1  0.66666295  0.33333022  0.26258809  1
  Sr  Sr1  1  0.33333705  0.66666978  0.73741191  1
  Mg  Mg2  1  0.00000000  0.00000000  0.00000000  1
  H  H3  1  0.82251512  0.64504005  0.76486669  1
  H  H4  1  0.82251300  0.17747273  0.76486715  1
  H  H5  1  0.35495817  0.17747913  0.76486363  1
  H  H6  1  0.17748488  0.35495995  0.23513331  1
  H  H7  1  0.17748700  0.82252727  0.23513285  1
  H  H8  1  0.64504183  0.82252087  0.23513637  1
