# generated using pymatgen
data_LiV2P4(HO8)2
_symmetry_space_group_name_H-M   'P 1'
_cell_length_a   4.87820665
_cell_length_b   7.88900953
_cell_length_c   7.34340893
_cell_angle_alpha   89.87921061
_cell_angle_beta   104.58605472
_cell_angle_gamma   89.55278966
_symmetry_Int_Tables_number   1
_chemical_formula_structural   LiV2P4(HO8)2
_chemical_formula_sum   'Li1 V2 P4 H2 O16'
_cell_volume   273.48637003
_cell_formula_units_Z   1
loop_
 _symmetry_equiv_pos_site_id
 _symmetry_equiv_pos_as_xyz
  1  'x, y, z'
loop_
 _atom_site_type_symbol
 _atom_site_label
 _atom_site_symmetry_multiplicity
 _atom_site_fract_x
 _atom_site_fract_y
 _atom_site_fract_z
 _atom_site_occupancy
  Li  Li0  1  0.39244176  0.86676761  0.84769068  1
  V  V1  1  0.49749653  0.49451240  0.00362412  1
  V  V2  1  0.98842613  0.00665758  0.48625830  1
  P  P3  1  0.13275830  0.35700491  0.27166431  1
  P  P4  1  0.36940738  0.84781224  0.23201481  1
  P  P5  1  0.62337053  0.15447812  0.76087677  1
  P  P6  1  0.87398743  0.65270644  0.73211661  1
  H  H7  1  0.53329367  0.50792115  0.51216259  1
  H  H8  1  0.96277908  0.01067531  0.98833677  1
  O  O9  1  0.13957286  0.55855478  0.85246005  1
  O  O10  1  0.03658133  0.17312259  0.32544140  1
  O  O11  1  0.16214885  0.84014300  0.36235339  1
  O  O12  1  0.26424253  0.44590575  0.45143605  1
  O  O13  1  0.36243338  0.05124384  0.65400129  1
  O  O14  1  0.54253943  0.33083930  0.81306377  1
  O  O15  1  0.24257456  0.94729130  0.05354495  1
  O  O16  1  0.32806267  0.32788190  0.13791530  1
  O  O17  1  0.66047806  0.67611779  0.85578185  1
  O  O18  1  0.74689395  0.04714316  0.94138417  1
  O  O19  1  0.46318126  0.67100439  0.18848254  1
  O  O20  1  0.63800067  0.94414702  0.35248656  1
  O  O21  1  0.74524167  0.55751226  0.55010204  1
  O  O22  1  0.83776880  0.16361323  0.63650378  1
  O  O23  1  0.98430755  0.82791225  0.68188011  1
  O  O24  1  0.85645364  0.44176370  0.15311679  1
