# generated using pymatgen
data_LiAl(Si2O5)2
_symmetry_space_group_name_H-M   'P 1'
_cell_length_a   5.23196498
_cell_length_b   7.73804500
_cell_length_c   11.40656612
_cell_angle_alpha   105.46900503
_cell_angle_beta   90.00000000
_cell_angle_gamma   90.00000000
_symmetry_Int_Tables_number   1
_chemical_formula_structural   LiAl(Si2O5)2
_chemical_formula_sum   'Li2 Al2 Si8 O20'
_cell_volume   445.06823972
_cell_formula_units_Z   2
loop_
 _symmetry_equiv_pos_site_id
 _symmetry_equiv_pos_as_xyz
  1  'x, y, z'
loop_
 _atom_site_type_symbol
 _atom_site_label
 _atom_site_symmetry_multiplicity
 _atom_site_fract_x
 _atom_site_fract_y
 _atom_site_fract_z
 _atom_site_occupancy
  Li  Li0  1  0.74252460  0.74923004  0.75076313  1
  Li  Li1  1  0.25747540  0.24923004  0.25076313  1
  O  O2  1  0.21282977  0.20750253  0.95974364  1
  O  O3  1  0.97764951  0.07213617  0.20878691  1
  O  O4  1  0.02235049  0.57213617  0.70878691  1
  O  O5  1  0.97778174  0.42639339  0.29286671  1
  O  O6  1  0.02221826  0.92639339  0.79286671  1
  O  O7  1  0.78693374  0.79101234  0.04199464  1
  O  O8  1  0.21306626  0.29101234  0.54199464  1
  O  O9  1  0.78717023  0.70750253  0.45974364  1
  O  O10  1  0.71254900  0.18015942  0.91014587  1
  O  O11  1  0.53823228  0.22678494  0.36201895  1
  O  O12  1  0.49988423  0.49924823  0.00071681  1
  O  O13  1  0.50011577  0.99924823  0.50071681  1
  O  O14  1  0.04338167  0.24929217  0.75087499  1
  O  O15  1  0.95661833  0.74929217  0.25087499  1
  O  O16  1  0.28745100  0.68015942  0.41014587  1
  O  O17  1  0.53828414  0.27197476  0.13963084  1
  O  O18  1  0.71278755  0.31829932  0.59144720  1
  O  O19  1  0.28721245  0.81829932  0.09144720  1
  O  O20  1  0.46171586  0.77197476  0.63963084  1
  O  O21  1  0.46176772  0.72678494  0.86201895  1
  Al  Al22  1  0.24214587  0.74930354  0.75081049  1
  Al  Al23  1  0.75785413  0.24930354  0.25081049  1
  Si  Si24  1  0.00085532  0.85762525  0.14866401  1
  Si  Si25  1  0.00100865  0.64088581  0.35302509  1
  Si  Si26  1  0.99899135  0.14088581  0.85302509  1
  Si  Si27  1  0.99914468  0.35762525  0.64866401  1
  Si  Si28  1  0.49524377  0.20794466  0.49886808  1
  Si  Si29  1  0.50492499  0.79060742  0.50274263  1
  Si  Si30  1  0.49507501  0.29060742  0.00274263  1
  Si  Si31  1  0.50475623  0.70794466  0.99886808  1
