# generated using pymatgen
data_RbTa(CuSe2)2
_symmetry_space_group_name_H-M   'P 1'
_cell_length_a   5.75022601
_cell_length_b   7.86322100
_cell_length_c   10.25263177
_cell_angle_alpha   90.00000000
_cell_angle_beta   106.28568082
_cell_angle_gamma   90.00000000
_symmetry_Int_Tables_number   1
_chemical_formula_structural   RbTa(CuSe2)2
_chemical_formula_sum   'Rb2 Ta2 Cu4 Se8'
_cell_volume   444.97500869
_cell_formula_units_Z   2
loop_
 _symmetry_equiv_pos_site_id
 _symmetry_equiv_pos_as_xyz
  1  'x, y, z'
loop_
 _atom_site_type_symbol
 _atom_site_label
 _atom_site_symmetry_multiplicity
 _atom_site_fract_x
 _atom_site_fract_y
 _atom_site_fract_z
 _atom_site_occupancy
  Cu  Cu0  1  0.55899178  0.50000000  0.00000000  1
  Cu  Cu1  1  0.55899178  0.00000000  0.00000000  1
  Cu  Cu2  1  0.14833127  0.75000000  0.20849595  1
  Cu  Cu3  1  0.93983532  0.25000000  0.79150405  1
  Se  Se4  1  0.09033629  0.25000000  0.58931799  1
  Se  Se5  1  0.30224684  0.75000000  0.00607161  1
  Se  Se6  1  0.89594653  0.00277089  0.20950766  1
  Se  Se7  1  0.68643887  0.99722911  0.79049234  1
  Se  Se8  1  0.89594653  0.49722911  0.20950766  1
  Se  Se9  1  0.68643887  0.50277089  0.79049234  1
  Se  Se10  1  0.29617523  0.25000000  0.99392839  1
  Se  Se11  1  0.50101830  0.75000000  0.41068201  1
  Rb  Rb12  1  0.48562960  0.25000000  0.36768400  1
  Rb  Rb13  1  0.11794561  0.75000000  0.63231600  1
  Ta  Ta14  1  0.43859578  0.25000000  0.78794440  1
  Ta  Ta15  1  0.65065138  0.75000000  0.21205560  1
