# generated using pymatgen
data_Li3ScN2
_symmetry_space_group_name_H-M   'P 1'
_cell_length_a   8.71520504
_cell_length_b   8.71520547
_cell_length_c   8.71520492
_cell_angle_alpha   109.47122168
_cell_angle_beta   109.47122267
_cell_angle_gamma   109.47121764
_symmetry_Int_Tables_number   1
_chemical_formula_structural   Li3ScN2
_chemical_formula_sum   'Li24 Sc8 N16'
_cell_volume   509.57833047
_cell_formula_units_Z   8
loop_
 _symmetry_equiv_pos_site_id
 _symmetry_equiv_pos_as_xyz
  1  'x, y, z'
loop_
 _atom_site_type_symbol
 _atom_site_label
 _atom_site_symmetry_multiplicity
 _atom_site_fract_x
 _atom_site_fract_y
 _atom_site_fract_z
 _atom_site_occupancy
  Sc  Sc0  1  0.24240705  0.24240705  0.24240705  1
  Sc  Sc1  1  0.00000000  0.25759295  0.50000000  1
  Sc  Sc2  1  0.50000000  1.00000000  0.25759295  1
  Sc  Sc3  1  0.25759295  0.50000000  0.00000000  1
  Sc  Sc4  1  0.75759295  0.75759295  0.75759295  1
  Sc  Sc5  1  1.00000000  0.74240705  0.50000000  1
  Sc  Sc6  1  0.50000000  0.00000000  0.74240705  1
  Sc  Sc7  1  0.74240705  0.50000000  0.00000000  1
  Li  Li8  1  0.50186493  0.26766660  0.54171591  1
  Li  Li9  1  0.96014902  0.95828409  0.22595069  1
  Li  Li10  1  0.73419832  0.27404931  0.23233340  1
  Li  Li11  1  0.53985098  0.76580168  -0.00186493  1
  Li  Li12  1  0.95828409  0.22595069  0.96014902  1
  Li  Li13  1  0.23233340  0.73419832  0.27404931  1
  Li  Li14  1  0.76580168  -0.00186493  0.53985098  1
  Li  Li15  1  0.54171591  0.50186493  0.26766660  1
  Li  Li16  1  0.26766660  0.54171591  0.50186493  1
  Li  Li17  1  0.22595069  0.96014902  0.95828409  1
  Li  Li18  1  0.27404931  0.23233340  0.73419832  1
  Li  Li19  1  -0.00186493  0.53985098  0.76580168  1
  Li  Li20  1  0.49813507  0.73233340  0.45828409  1
  Li  Li21  1  0.03985098  0.04171591  0.77404931  1
  Li  Li22  1  0.26580168  0.72595069  0.76766660  1
  Li  Li23  1  0.46014902  0.23419832  1.00186493  1
  Li  Li24  1  0.04171591  0.77404931  0.03985098  1
  Li  Li25  1  0.76766660  0.26580168  0.72595069  1
  Li  Li26  1  0.23419832  1.00186493  0.46014902  1
  Li  Li27  1  0.45828409  0.49813507  0.73233340  1
  Li  Li28  1  0.73233340  0.45828409  0.49813507  1
  Li  Li29  1  0.77404931  0.03985098  0.04171591  1
  Li  Li30  1  0.72595069  0.76766660  0.26580168  1
  Li  Li31  1  1.00186493  0.46014902  0.23419832  1
  N  N32  1  0.00000000  0.00000000  0.00000000  1
  N  N33  1  0.00000000  0.50000000  0.50000000  1
  N  N34  1  0.50000000  0.00000000  0.50000000  1
  N  N35  1  0.50000000  0.50000000  0.00000000  1
  N  N36  1  0.25000000  0.48600067  0.23600067  1
  N  N37  1  0.01399933  0.26399933  0.75000000  1
  N  N38  1  0.26399933  0.75000000  0.01399933  1
  N  N39  1  0.48600067  0.23600067  0.25000000  1
  N  N40  1  0.23600067  0.25000000  0.48600067  1
  N  N41  1  0.75000000  0.01399933  0.26399933  1
  N  N42  1  0.75000000  0.51399933  0.76399933  1
  N  N43  1  0.98600067  0.73600067  0.25000000  1
  N  N44  1  0.73600067  0.25000000  0.98600067  1
  N  N45  1  0.51399933  0.76399933  0.75000000  1
  N  N46  1  0.76399933  0.75000000  0.51399933  1
  N  N47  1  0.25000000  0.98600067  0.73600067  1
