# generated using pymatgen
data_B2Se2O7
_symmetry_space_group_name_H-M   'P 1'
_cell_length_a   7.67600327
_cell_length_b   8.01783911
_cell_length_c   9.22066135
_cell_angle_alpha   90.00000000
_cell_angle_beta   90.00000000
_cell_angle_gamma   90.00000000
_symmetry_Int_Tables_number   1
_chemical_formula_structural   B2Se2O7
_chemical_formula_sum   'B8 Se8 O28'
_cell_volume   567.48522683
_cell_formula_units_Z   4
loop_
 _symmetry_equiv_pos_site_id
 _symmetry_equiv_pos_as_xyz
  1  'x, y, z'
loop_
 _atom_site_type_symbol
 _atom_site_label
 _atom_site_symmetry_multiplicity
 _atom_site_fract_x
 _atom_site_fract_y
 _atom_site_fract_z
 _atom_site_occupancy
  B  B0  1  0.09710582  0.95088979  0.85288319  1
  B  B1  1  0.07313181  0.98255242  0.35655864  1
  B  B2  1  0.90289418  0.45088979  0.64711681  1
  B  B3  1  0.59710582  0.54911021  0.14711681  1
  B  B4  1  0.42686819  0.01744758  0.85655864  1
  B  B5  1  0.92686819  0.48255242  0.14344136  1
  B  B6  1  0.57313181  0.51744758  0.64344136  1
  B  B7  1  0.40289418  0.04911021  0.35288319  1
  Se  Se8  1  0.59246377  0.89416039  0.12308832  1
  Se  Se9  1  0.07376729  0.16606301  0.09821136  1
  Se  Se10  1  0.92623271  0.66606301  0.40178864  1
  Se  Se11  1  0.42623271  0.83393699  0.59821136  1
  Se  Se12  1  0.40753623  0.39416039  0.37691168  1
  Se  Se13  1  0.90753623  0.10583961  0.62308832  1
  Se  Se14  1  0.57376729  0.33393699  0.90178864  1
  Se  Se15  1  0.09246377  0.60583961  0.87691168  1
  O  O16  1  0.99566715  0.49785142  0.29708090  1
  O  O17  1  0.51071781  0.20089793  0.38838092  1
  O  O18  1  0.91613480  0.03521426  0.44587102  1
  O  O19  1  0.41900136  0.01071664  0.19313870  1
  O  O20  1  0.91900136  0.48928336  0.80686130  1
  O  O21  1  0.22447986  0.07723207  0.38690604  1
  O  O22  1  0.08386520  0.53521426  0.05412898  1
  O  O23  1  0.98928219  0.79910207  0.88838092  1
  O  O24  1  0.41613480  0.46478574  0.55412898  1
  O  O25  1  0.00579355  0.09176128  0.93016764  1
  O  O26  1  0.48928219  0.70089793  0.11161908  1
  O  O27  1  0.50579355  0.40823872  0.06983236  1
  O  O28  1  0.99420645  0.59176128  0.56983236  1
  O  O29  1  0.08099864  0.98928336  0.69313870  1
  O  O30  1  0.01071781  0.29910207  0.61161908  1
  O  O31  1  0.10549726  0.79929657  0.38083338  1
  O  O32  1  0.58386520  0.96478574  0.94587102  1
  O  O33  1  0.49420645  0.90823872  0.43016764  1
  O  O34  1  0.58099864  0.51071664  0.30686130  1
  O  O35  1  0.00433285  0.99785142  0.20291910  1
  O  O36  1  0.27552014  0.92276793  0.88690604  1
  O  O37  1  0.89450274  0.29929657  0.11916662  1
  O  O38  1  0.72447986  0.42276793  0.61309396  1
  O  O39  1  0.50433285  0.50214858  0.79708090  1
  O  O40  1  0.77552014  0.57723207  0.11309396  1
  O  O41  1  0.49566715  0.00214858  0.70291910  1
  O  O42  1  0.60549726  0.70070343  0.61916662  1
  O  O43  1  0.39450274  0.20070343  0.88083338  1
