# generated using pymatgen
data_Ga2Te3(HO2)6
_symmetry_space_group_name_H-M   'P 1'
_cell_length_a   8.70027435
_cell_length_b   8.70027465
_cell_length_c   8.70027436
_cell_angle_alpha   66.59492529
_cell_angle_beta   66.59492441
_cell_angle_gamma   66.59492392
_symmetry_Int_Tables_number   1
_chemical_formula_structural   Ga2Te3(HO2)6
_chemical_formula_sum   'Ga4 Te6 H12 O24'
_cell_volume   531.76257388
_cell_formula_units_Z   2
loop_
 _symmetry_equiv_pos_site_id
 _symmetry_equiv_pos_as_xyz
  1  'x, y, z'
loop_
 _atom_site_type_symbol
 _atom_site_label
 _atom_site_symmetry_multiplicity
 _atom_site_fract_x
 _atom_site_fract_y
 _atom_site_fract_z
 _atom_site_occupancy
  Ga  Ga0  1  0.09182438  0.09182438  0.09182438  1
  Ga  Ga1  1  0.59182438  0.59182438  0.59182438  1
  Ga  Ga2  1  0.33735797  0.33735797  0.33735797  1
  Ga  Ga3  1  0.83735797  0.83735797  0.83735797  1
  Te  Te4  1  0.44119702  0.90114407  0.81072503  1
  Te  Te5  1  0.81072503  0.44119702  0.90114407  1
  Te  Te6  1  0.90114407  0.81072503  0.44119702  1
  Te  Te7  1  0.40114407  0.94119702  0.31072503  1
  Te  Te8  1  0.31072503  0.40114407  0.94119702  1
  Te  Te9  1  0.94119702  0.31072503  0.40114407  1
  O  O10  1  0.22948233  0.88320321  0.99795034  1
  O  O11  1  0.99795034  0.22948233  0.88320321  1
  O  O12  1  0.88320321  0.99795034  0.22948233  1
  O  O13  1  0.38320321  0.72948233  0.49795034  1
  O  O14  1  0.49795034  0.38320321  0.72948233  1
  O  O15  1  0.72948233  0.49795034  0.38320321  1
  O  O16  1  0.30413602  0.17560482  0.96495895  1
  O  O17  1  0.96495895  0.30413602  0.17560482  1
  O  O18  1  0.17560482  0.96495895  0.30413602  1
  O  O19  1  0.67560482  0.80413602  0.46495895  1
  O  O20  1  0.46495895  0.67560482  0.80413602  1
  O  O21  1  0.80413602  0.46495895  0.67560482  1
  O  O22  1  0.59985882  0.81610147  0.94603911  1
  O  O23  1  0.94603911  0.59985882  0.81610147  1
  O  O24  1  0.81610147  0.94603911  0.59985882  1
  O  O25  1  0.31610147  0.09985882  0.44603911  1
  O  O26  1  0.44603911  0.31610147  0.09985882  1
  O  O27  1  0.09985882  0.44603911  0.31610147  1
  O  O28  1  0.26148345  0.36285529  0.58537342  1
  O  O29  1  0.58537342  0.26148345  0.36285529  1
  O  O30  1  0.36285529  0.58537342  0.26148345  1
  O  O31  1  0.86285529  0.76148345  0.08537342  1
  O  O32  1  0.08537342  0.86285529  0.76148345  1
  O  O33  1  0.76148345  0.08537342  0.86285529  1
  H  H34  1  0.35563781  0.34839190  0.63156780  1
  H  H35  1  0.63156780  0.35563781  0.34839190  1
  H  H36  1  0.34839190  0.63156780  0.35563781  1
  H  H37  1  0.84839190  0.85563781  0.13156780  1
  H  H38  1  0.13156780  0.84839190  0.85563781  1
  H  H39  1  0.85563781  0.13156780  0.84839190  1
  H  H40  1  0.17175730  0.30934901  0.68301150  1
  H  H41  1  0.68301150  0.17175730  0.30934901  1
  H  H42  1  0.30934901  0.68301150  0.17175730  1
  H  H43  1  0.80934901  0.67175730  0.18301150  1
  H  H44  1  0.18301150  0.80934901  0.67175730  1
  H  H45  1  0.67175730  0.18301150  0.80934901  1
