# generated using pymatgen
data_Ba(ReN2)2
_symmetry_space_group_name_H-M   'P 1'
_cell_length_a   11.11165872
_cell_length_b   11.11165872
_cell_length_c   11.11165872
_cell_angle_alpha   90.00000000
_cell_angle_beta   90.00000000
_cell_angle_gamma   90.00000000
_symmetry_Int_Tables_number   1
_chemical_formula_structural   Ba(ReN2)2
_chemical_formula_sum   'Ba12 Re24 N48'
_cell_volume   1371.94494059
_cell_formula_units_Z   12
loop_
 _symmetry_equiv_pos_site_id
 _symmetry_equiv_pos_as_xyz
  1  'x, y, z'
loop_
 _atom_site_type_symbol
 _atom_site_label
 _atom_site_symmetry_multiplicity
 _atom_site_fract_x
 _atom_site_fract_y
 _atom_site_fract_z
 _atom_site_occupancy
  Ba  Ba0  1  0.50000000  0.50000000  0.00000000  1
  Ba  Ba1  1  0.50000000  0.00000000  0.50000000  1
  Ba  Ba2  1  0.00000000  0.50000000  0.50000000  1
  Ba  Ba3  1  0.00000000  0.00000000  0.00000000  1
  Ba  Ba4  1  0.14620738  0.85379262  0.35379262  1
  Ba  Ba5  1  0.85379262  0.35379262  0.14620738  1
  Ba  Ba6  1  0.35379262  0.14620738  0.85379262  1
  Ba  Ba7  1  0.64620738  0.64620738  0.64620738  1
  Ba  Ba8  1  0.85379262  0.14620738  0.64620738  1
  Ba  Ba9  1  0.14620738  0.64620738  0.85379262  1
  Ba  Ba10  1  0.64620738  0.85379262  0.14620738  1
  Ba  Ba11  1  0.35379262  0.35379262  0.35379262  1
  Re  Re12  1  0.41258909  0.67396226  0.34497562  1
  Re  Re13  1  0.58741091  0.17396226  0.15502438  1
  Re  Re14  1  0.08741091  0.32603774  0.84497562  1
  Re  Re15  1  0.91258909  0.82603774  0.65502438  1
  Re  Re16  1  0.34497562  0.41258909  0.67396226  1
  Re  Re17  1  0.15502438  0.58741091  0.17396226  1
  Re  Re18  1  0.84497562  0.08741091  0.32603774  1
  Re  Re19  1  0.65502438  0.91258909  0.82603774  1
  Re  Re20  1  0.67396226  0.34497562  0.41258909  1
  Re  Re21  1  0.17396226  0.15502438  0.58741091  1
  Re  Re22  1  0.32603774  0.84497562  0.08741091  1
  Re  Re23  1  0.82603774  0.65502438  0.91258909  1
  Re  Re24  1  0.58741091  0.32603774  0.65502438  1
  Re  Re25  1  0.41258909  0.82603774  0.84497562  1
  Re  Re26  1  0.91258909  0.67396226  0.15502438  1
  Re  Re27  1  0.08741091  0.17396226  0.34497562  1
  Re  Re28  1  0.65502438  0.58741091  0.32603774  1
  Re  Re29  1  0.84497562  0.41258909  0.82603774  1
  Re  Re30  1  0.15502438  0.91258909  0.67396226  1
  Re  Re31  1  0.34497562  0.08741091  0.17396226  1
  Re  Re32  1  0.32603774  0.65502438  0.58741091  1
  Re  Re33  1  0.82603774  0.84497562  0.41258909  1
  Re  Re34  1  0.67396226  0.15502438  0.91258909  1
  Re  Re35  1  0.17396226  0.34497562  0.08741091  1
  N  N36  1  0.39521793  0.80568682  0.25077230  1
  N  N37  1  0.60478207  0.30568682  0.24922770  1
  N  N38  1  0.10478207  0.19431318  0.75077230  1
  N  N39  1  0.89521793  0.69431318  0.74922770  1
  N  N40  1  0.25077230  0.39521793  0.80568682  1
  N  N41  1  0.24922770  0.60478207  0.30568682  1
  N  N42  1  0.75077230  0.10478207  0.19431318  1
  N  N43  1  0.74922770  0.89521793  0.69431318  1
  N  N44  1  0.80568682  0.25077230  0.39521793  1
  N  N45  1  0.30568682  0.24922770  0.60478207  1
  N  N46  1  0.19431318  0.75077230  0.10478207  1
  N  N47  1  0.69431318  0.74922770  0.89521793  1
  N  N48  1  0.60478207  0.19431318  0.74922770  1
  N  N49  1  0.39521793  0.69431318  0.75077230  1
  N  N50  1  0.89521793  0.80568682  0.24922770  1
  N  N51  1  0.10478207  0.30568682  0.25077230  1
  N  N52  1  0.74922770  0.60478207  0.19431318  1
  N  N53  1  0.75077230  0.39521793  0.69431318  1
  N  N54  1  0.24922770  0.89521793  0.80568682  1
  N  N55  1  0.25077230  0.10478207  0.30568682  1
  N  N56  1  0.19431318  0.74922770  0.60478207  1
  N  N57  1  0.69431318  0.75077230  0.39521793  1
  N  N58  1  0.80568682  0.24922770  0.89521793  1
  N  N59  1  0.30568682  0.25077230  0.10478207  1
  N  N60  1  0.45993050  0.72757494  0.50700810  1
  N  N61  1  0.54006950  0.22757494  0.99299190  1
  N  N62  1  0.04006950  0.27242506  0.00700810  1
  N  N63  1  0.95993050  0.77242506  0.49299190  1
  N  N64  1  0.50700810  0.45993050  0.72757494  1
  N  N65  1  0.99299190  0.54006950  0.22757494  1
  N  N66  1  0.00700810  0.04006950  0.27242506  1
  N  N67  1  0.49299190  0.95993050  0.77242506  1
  N  N68  1  0.72757494  0.50700810  0.45993050  1
  N  N69  1  0.22757494  0.99299190  0.54006950  1
  N  N70  1  0.27242506  0.00700810  0.04006950  1
  N  N71  1  0.77242506  0.49299190  0.95993050  1
  N  N72  1  0.54006950  0.27242506  0.49299190  1
  N  N73  1  0.45993050  0.77242506  0.00700810  1
  N  N74  1  0.95993050  0.72757494  0.99299190  1
  N  N75  1  0.04006950  0.22757494  0.50700810  1
  N  N76  1  0.49299190  0.54006950  0.27242506  1
  N  N77  1  0.00700810  0.45993050  0.77242506  1
  N  N78  1  0.99299190  0.95993050  0.72757494  1
  N  N79  1  0.50700810  0.04006950  0.22757494  1
  N  N80  1  0.27242506  0.49299190  0.54006950  1
  N  N81  1  0.77242506  0.00700810  0.45993050  1
  N  N82  1  0.72757494  0.99299190  0.95993050  1
  N  N83  1  0.22757494  0.50700810  0.04006950  1
