# generated using pymatgen
data_Li15Cr2N9
_symmetry_space_group_name_H-M   'P 1'
_cell_length_a   9.37898226
_cell_length_b   10.21859420
_cell_length_c   10.22753172
_cell_angle_alpha   90.00000000
_cell_angle_beta   90.00000000
_cell_angle_gamma   90.00000000
_symmetry_Int_Tables_number   1
_chemical_formula_structural   Li15Cr2N9
_chemical_formula_sum   'Li60 Cr8 N36'
_cell_volume   980.20678041
_cell_formula_units_Z   4
loop_
 _symmetry_equiv_pos_site_id
 _symmetry_equiv_pos_as_xyz
  1  'x, y, z'
loop_
 _atom_site_type_symbol
 _atom_site_label
 _atom_site_symmetry_multiplicity
 _atom_site_fract_x
 _atom_site_fract_y
 _atom_site_fract_z
 _atom_site_occupancy
  Li  Li0  1  0.74988031  0.74908468  0.74484018  1
  Li  Li1  1  0.74323915  0.78044776  0.08985731  1
  Li  Li2  1  0.74329653  0.90999147  0.28155371  1
  Li  Li3  1  0.74363149  0.58810162  0.21514896  1
  Li  Li4  1  0.74389338  0.71467809  0.41280124  1
  Li  Li5  1  0.71309944  0.40399206  0.06427541  1
  Li  Li6  1  0.73381688  0.56333414  0.60042894  1
  Li  Li7  1  0.71799508  0.92965956  0.90236762  1
  Li  Li8  1  0.73882524  0.10206753  0.42785422  1
  Li  Li9  1  0.51652362  0.08361945  0.77332891  1
  Li  Li10  1  0.51487813  0.23495036  0.59571195  1
  Li  Li11  1  0.51489959  0.26780670  0.91897327  1
  Li  Li12  1  0.51471986  0.40661138  0.74029557  1
  Li  Li13  1  0.49963462  0.26865593  0.23116965  1
  Li  Li14  1  0.50036538  0.76865593  0.76883035  1
  Li  Li15  1  0.50067147  0.09861961  0.40000781  1
  Li  Li16  1  0.49932853  0.59861961  0.59999219  1
  Li  Li17  1  0.48510041  0.76780670  0.08102673  1
  Li  Li18  1  0.48528014  0.90661138  0.25970443  1
  Li  Li19  1  0.48347638  0.58361945  0.22667109  1
  Li  Li20  1  0.48512187  0.73495036  0.40428805  1
  Li  Li21  1  0.28200492  0.42965956  0.09763238  1
  Li  Li22  1  0.28690056  0.90399206  0.93572459  1
  Li  Li23  1  0.26117476  0.60206753  0.57214578  1
  Li  Li24  1  0.26618312  0.06333414  0.39957106  1
  Li  Li25  1  0.25670347  0.40999147  0.71844629  1
  Li  Li26  1  0.25676085  0.28044776  0.91014269  1
  Li  Li27  1  0.25610662  0.21467809  0.58719876  1
  Li  Li28  1  0.25636851  0.08810162  0.78485104  1
  Li  Li29  1  0.24988031  0.74908468  0.75515982  1
  Li  Li30  1  0.25011969  0.24908468  0.25515982  1
  Li  Li31  1  0.24329653  0.90999147  0.21844629  1
  Li  Li32  1  0.24389338  0.71467809  0.08719876  1
  Li  Li33  1  0.24323915  0.78044776  0.41014269  1
  Li  Li34  1  0.24363149  0.58810162  0.28485104  1
  Li  Li35  1  0.21799508  0.92965956  0.59763238  1
  Li  Li36  1  0.21309944  0.40399206  0.43572459  1
  Li  Li37  1  0.23882524  0.10206753  0.07214578  1
  Li  Li38  1  0.23381688  0.56333414  0.89957106  1
  Li  Li39  1  0.01489959  0.26780670  0.58102673  1
  Li  Li40  1  0.01471986  0.40661138  0.75970443  1
  Li  Li41  1  0.01652362  0.08361945  0.72667109  1
  Li  Li42  1  0.01487813  0.23495036  0.90428805  1
  Li  Li43  1  0.00067147  0.09861961  0.09999219  1
  Li  Li44  1  0.99932853  0.59861961  0.90000781  1
  Li  Li45  1  0.99963462  0.26865593  0.26883035  1
  Li  Li46  1  0.00036538  0.76865593  0.73116965  1
  Li  Li47  1  0.98347638  0.58361945  0.27332891  1
  Li  Li48  1  0.98512187  0.73495036  0.09571195  1
  Li  Li49  1  0.98510041  0.76780670  0.41897327  1
  Li  Li50  1  0.98528014  0.90661138  0.24029557  1
  Li  Li51  1  0.76618312  0.06333414  0.10042894  1
  Li  Li52  1  0.78200492  0.42965956  0.40236762  1
  Li  Li53  1  0.78690056  0.90399206  0.56427541  1
  Li  Li54  1  0.76117476  0.60206753  0.92785422  1
  Li  Li55  1  0.75676085  0.28044776  0.58985731  1
  Li  Li56  1  0.75636851  0.08810162  0.71514896  1
  Li  Li57  1  0.75670347  0.40999147  0.78155371  1
  Li  Li58  1  0.75610662  0.21467809  0.91280124  1
  Li  Li59  1  0.75011969  0.24908468  0.24484018  1
  Cr  Cr60  1  0.50329016  0.07841923  0.08116502  1
  Cr  Cr61  1  0.50346425  0.91854543  0.57835118  1
  Cr  Cr62  1  0.49670984  0.57841923  0.91883498  1
  Cr  Cr63  1  0.49653575  0.41854543  0.42164882  1
  Cr  Cr64  1  0.99670984  0.57841923  0.58116502  1
  Cr  Cr65  1  0.99653575  0.41854543  0.07835118  1
  Cr  Cr66  1  0.00329016  0.07841923  0.41883498  1
  Cr  Cr67  1  0.00346425  0.91854543  0.92164882  1
  N  N68  1  0.64228845  0.24823694  0.75269282  1
  N  N69  1  0.62371004  0.21139250  0.08270882  1
  N  N70  1  0.61260299  0.58757678  0.77854650  1
  N  N71  1  0.61204123  0.27843369  0.41236275  1
  N  N72  1  0.62398545  0.91762270  0.71098715  1
  N  N73  1  0.60553037  0.59034657  0.05760148  1
  N  N74  1  0.60736262  0.93655579  0.08979388  1
  N  N75  1  0.60365295  0.55973145  0.41955546  1
  N  N76  1  0.60587024  0.91841858  0.43444814  1
  N  N77  1  0.39412976  0.41841858  0.56555186  1
  N  N78  1  0.39634705  0.05973145  0.58044454  1
  N  N79  1  0.39263738  0.43655579  0.91020612  1
  N  N80  1  0.39446963  0.09034657  0.94239852  1
  N  N81  1  0.37601455  0.41762270  0.28901285  1
  N  N82  1  0.38795877  0.77843369  0.58763725  1
  N  N83  1  0.38739701  0.08757678  0.22145350  1
  N  N84  1  0.37628996  0.71139250  0.91729118  1
  N  N85  1  0.35771155  0.74823694  0.24730718  1
  N  N86  1  0.14228845  0.24823694  0.74730718  1
  N  N87  1  0.11204123  0.27843369  0.08763725  1
  N  N88  1  0.11260299  0.58757678  0.72145350  1
  N  N89  1  0.12371004  0.21139250  0.41729118  1
  N  N90  1  0.12398545  0.91762270  0.78901285  1
  N  N91  1  0.10587024  0.91841858  0.06555186  1
  N  N92  1  0.10365295  0.55973145  0.08044454  1
  N  N93  1  0.10736262  0.93655579  0.41020612  1
  N  N94  1  0.10553037  0.59034657  0.44239852  1
  N  N95  1  0.89634705  0.05973145  0.91955546  1
  N  N96  1  0.89446963  0.09034657  0.55760148  1
  N  N97  1  0.89263738  0.43655579  0.58979388  1
  N  N98  1  0.89412976  0.41841858  0.93444814  1
  N  N99  1  0.87601455  0.41762270  0.21098715  1
  N  N100  1  0.88739701  0.08757678  0.27854650  1
  N  N101  1  0.87628996  0.71139250  0.58270882  1
  N  N102  1  0.88795877  0.77843369  0.91236275  1
  N  N103  1  0.85771155  0.74823694  0.25269282  1
