# generated using pymatgen
data_Cs2CoSiO4
_symmetry_space_group_name_H-M   'P 1'
_cell_length_a   5.88519419
_cell_length_b   7.06166549
_cell_length_c   8.22533923
_cell_angle_alpha   90.00000000
_cell_angle_beta   90.00000000
_cell_angle_gamma   114.62642900
_symmetry_Int_Tables_number   1
_chemical_formula_structural   Cs2CoSiO4
_chemical_formula_sum   'Cs4 Co2 Si2 O8'
_cell_volume   310.74679545
_cell_formula_units_Z   2
loop_
 _symmetry_equiv_pos_site_id
 _symmetry_equiv_pos_as_xyz
  1  'x, y, z'
loop_
 _atom_site_type_symbol
 _atom_site_label
 _atom_site_symmetry_multiplicity
 _atom_site_fract_x
 _atom_site_fract_y
 _atom_site_fract_z
 _atom_site_occupancy
  O  O0  1  0.35358594  0.70717189  0.29300043  1
  O  O1  1  0.64641406  0.29282811  0.79300043  1
  O  O2  1  0.17398588  0.34797177  0.43746678  1
  O  O3  1  0.82601412  0.65202823  0.93746678  1
  O  O4  1  0.88915628  0.32210400  0.08021450  1
  O  O5  1  0.43294772  0.32210400  0.08021450  1
  O  O6  1  0.11084372  0.67789600  0.58021450  1
  O  O7  1  0.56705228  0.67789600  0.58021450  1
  Si  Si8  1  0.69868133  0.39736265  0.97902157  1
  Si  Si9  1  0.30131867  0.60263735  0.47902157  1
  Co  Co10  1  0.20709957  0.41419914  0.19359704  1
  Co  Co11  1  0.79290043  0.58580086  0.69359704  1
  Cs  Cs12  1  0.07742521  0.15485042  0.77374857  1
  Cs  Cs13  1  0.92257479  0.84514958  0.27374857  1
  Cs  Cs14  1  0.40645776  0.81291552  0.91623660  1
  Cs  Cs15  1  0.59354224  0.18708448  0.41623660  1
