# generated using pymatgen
data_LiZnPH2O5
_symmetry_space_group_name_H-M   'P 1'
_cell_length_a   5.06622563
_cell_length_b   8.16470829
_cell_length_c   10.80387485
_cell_angle_alpha   90.00000000
_cell_angle_beta   90.00000000
_cell_angle_gamma   90.00000000
_symmetry_Int_Tables_number   1
_chemical_formula_structural   LiZnPH2O5
_chemical_formula_sum   'Li4 Zn4 P4 H8 O20'
_cell_volume   446.89422780
_cell_formula_units_Z   4
loop_
 _symmetry_equiv_pos_site_id
 _symmetry_equiv_pos_as_xyz
  1  'x, y, z'
loop_
 _atom_site_type_symbol
 _atom_site_label
 _atom_site_symmetry_multiplicity
 _atom_site_fract_x
 _atom_site_fract_y
 _atom_site_fract_z
 _atom_site_occupancy
  H  H0  1  0.83000338  0.32331340  0.95377270  1
  H  H1  1  0.33000338  0.67668660  0.04622730  1
  H  H2  1  0.83000338  0.17668660  0.45377270  1
  H  H3  1  0.33000338  0.82331340  0.54622730  1
  H  H4  1  0.66609639  0.47322240  0.99932799  1
  H  H5  1  0.16609639  0.52677760  0.00067201  1
  H  H6  1  0.66609639  0.02677760  0.49932799  1
  H  H7  1  0.16609639  0.97322240  0.50067201  1
  Li  Li8  1  0.79765510  0.18692649  0.68400349  1
  Li  Li9  1  0.29765510  0.81307351  0.31599651  1
  Li  Li10  1  0.79765510  0.31307351  0.18400349  1
  Li  Li11  1  0.29765510  0.68692649  0.81599651  1
  O  O12  1  0.92301555  0.68867857  0.77521651  1
  O  O13  1  0.42301555  0.31132143  0.22478349  1
  O  O14  1  0.92301555  0.81132143  0.27521651  1
  O  O15  1  0.42301555  0.18867857  0.72478349  1
  O  O16  1  0.42198655  0.91355218  0.83320387  1
  O  O17  1  0.92198655  0.08644782  0.16679613  1
  O  O18  1  0.42198655  0.58644782  0.33320387  1
  O  O19  1  0.92198655  0.41355218  0.66679613  1
  O  O20  1  0.99709846  0.07490680  0.81328771  1
  O  O21  1  0.49709846  0.92509320  0.18671229  1
  O  O22  1  0.99709846  0.42509320  0.31328771  1
  O  O23  1  0.49709846  0.57490680  0.68671229  1
  O  O24  1  0.36497067  0.32173979  0.45605690  1
  O  O25  1  0.86497067  0.67826021  0.54394310  1
  O  O26  1  0.36497067  0.17826021  0.95605690  1
  O  O27  1  0.86497067  0.82173979  0.04394310  1
  O  O28  1  0.33276048  0.91245391  0.48586350  1
  O  O29  1  0.83276048  0.08754609  0.51413650  1
  O  O30  1  0.33276048  0.58754609  0.98586350  1
  O  O31  1  0.83276048  0.41245391  0.01413650  1
  P  P32  1  0.30147778  0.08999190  0.83357722  1
  P  P33  1  0.80147778  0.91000810  0.16642278  1
  P  P34  1  0.30147778  0.41000810  0.33357722  1
  P  P35  1  0.80147778  0.58999190  0.66642278  1
  Zn  Zn36  1  0.29933565  0.37986388  0.62748428  1
  Zn  Zn37  1  0.79933565  0.62013612  0.37251572  1
  Zn  Zn38  1  0.29933565  0.12013612  0.12748428  1
  Zn  Zn39  1  0.79933565  0.87986388  0.87251572  1
