# generated using pymatgen
data_LiBH4
_symmetry_space_group_name_H-M   'P 1'
_cell_length_a   4.18003883
_cell_length_b   4.17996759
_cell_length_c   6.70992170
_cell_angle_alpha   90.00000000
_cell_angle_beta   90.00000000
_cell_angle_gamma   120.00056369
_symmetry_Int_Tables_number   1
_chemical_formula_structural   LiBH4
_chemical_formula_sum   'Li2 B2 H8'
_cell_volume   101.53104307
_cell_formula_units_Z   2
loop_
 _symmetry_equiv_pos_site_id
 _symmetry_equiv_pos_as_xyz
  1  'x, y, z'
loop_
 _atom_site_type_symbol
 _atom_site_label
 _atom_site_symmetry_multiplicity
 _atom_site_fract_x
 _atom_site_fract_y
 _atom_site_fract_z
 _atom_site_occupancy
  Li  Li0  1  0.66669200  0.33338400  0.50588206  1
  Li  Li1  1  0.33330800  0.66661600  0.00588206  1
  B  B2  1  0.66667608  0.33335215  0.05779302  1
  B  B3  1  0.33332392  0.66664785  0.55779302  1
  H  H4  1  0.66669219  0.33338439  0.87631088  1
  H  H5  1  0.33330781  0.66661561  0.37631088  1
  H  H6  1  0.82536898  0.17464707  0.11833021  1
  H  H7  1  0.82537259  0.65074518  0.11835363  1
  H  H8  1  0.34927808  0.17464707  0.11833021  1
  H  H9  1  0.17463102  0.82535293  0.61833021  1
  H  H10  1  0.17462741  0.34925482  0.61835363  1
  H  H11  1  0.65072192  0.82535293  0.61833021  1
