# generated using pymatgen
data_SiO2
_symmetry_space_group_name_H-M   'P 1'
_cell_length_a   5.02150235
_cell_length_b   5.02150235
_cell_length_c   5.51056977
_cell_angle_alpha   90.00000000
_cell_angle_beta   90.00000000
_cell_angle_gamma   119.99999995
_symmetry_Int_Tables_number   1
_chemical_formula_structural   SiO2
_chemical_formula_sum   'Si3 O6'
_cell_volume   120.33569695
_cell_formula_units_Z   3
loop_
 _symmetry_equiv_pos_site_id
 _symmetry_equiv_pos_as_xyz
  1  'x, y, z'
loop_
 _atom_site_type_symbol
 _atom_site_label
 _atom_site_symmetry_multiplicity
 _atom_site_fract_x
 _atom_site_fract_y
 _atom_site_fract_z
 _atom_site_occupancy
  O  O0  1  0.25609376  0.41485418  0.79454328  1
  O  O1  1  0.58514582  0.84123958  0.12787661  1
  O  O2  1  0.15876042  0.74390624  0.46120994  1
  O  O3  1  0.41485418  0.25609376  0.20545672  1
  O  O4  1  0.74390624  0.15876042  0.53879006  1
  O  O5  1  0.84123958  0.58514582  0.87212339  1
  Si  Si6  1  0.52369493  0.52369493  0.00000000  1
  Si  Si7  1  0.00000000  0.47630507  0.66666667  1
  Si  Si8  1  0.47630507  0.00000000  0.33333333  1
