# generated using pymatgen
data_Ga2Se3
_symmetry_space_group_name_H-M   'P 1'
_cell_length_a   6.81154892
_cell_length_b   6.76989541
_cell_length_c   6.89657799
_cell_angle_alpha   80.95245429
_cell_angle_beta   60.40701430
_cell_angle_gamma   71.43174923
_symmetry_Int_Tables_number   1
_chemical_formula_structural   Ga2Se3
_chemical_formula_sum   'Ga4 Se6'
_cell_volume   262.14518696
_cell_formula_units_Z   2
loop_
 _symmetry_equiv_pos_site_id
 _symmetry_equiv_pos_as_xyz
  1  'x, y, z'
loop_
 _atom_site_type_symbol
 _atom_site_label
 _atom_site_symmetry_multiplicity
 _atom_site_fract_x
 _atom_site_fract_y
 _atom_site_fract_z
 _atom_site_occupancy
  Ga  Ga0  1  0.71927424  0.50514227  0.49774732  1
  Ga  Ga1  1  0.21702156  0.00514227  0.50225268  1
  Ga  Ga2  1  0.41605691  0.50098926  0.17011425  1
  Ga  Ga3  1  0.58617116  0.00098926  0.82988575  1
  Se  Se4  1  0.25962059  0.88661949  0.15594399  1
  Se  Se5  1  0.41556458  0.38661949  0.84405601  1
  Se  Se6  1  0.78132899  0.36236251  0.17177313  1
  Se  Se7  1  0.95310212  0.86236251  0.82822687  1
  Se  Se8  1  0.09850326  0.39248648  0.51445334  1
  Se  Se9  1  0.61295660  0.89248648  0.48554666  1
