# generated using pymatgen
data_PBr7
_symmetry_space_group_name_H-M   'P 1'
_cell_length_a   8.34261844
_cell_length_b   9.39783289
_cell_length_c   15.13122886
_cell_angle_alpha   90.00000000
_cell_angle_beta   90.00000000
_cell_angle_gamma   90.00000000
_symmetry_Int_Tables_number   1
_chemical_formula_structural   PBr7
_chemical_formula_sum   'P4 Br28'
_cell_volume   1186.32668462
_cell_formula_units_Z   4
loop_
 _symmetry_equiv_pos_site_id
 _symmetry_equiv_pos_as_xyz
  1  'x, y, z'
loop_
 _atom_site_type_symbol
 _atom_site_label
 _atom_site_symmetry_multiplicity
 _atom_site_fract_x
 _atom_site_fract_y
 _atom_site_fract_z
 _atom_site_occupancy
  P  P0  1  0.75000000  0.38100036  0.64609279  1
  P  P1  1  0.75000000  0.88100036  0.85390721  1
  P  P2  1  0.25000000  0.11899964  0.14609279  1
  P  P3  1  0.25000000  0.61899964  0.35390721  1
  Br  Br4  1  0.25000000  0.83336429  0.62417621  1
  Br  Br5  1  0.75000000  0.39274861  0.29871027  1
  Br  Br6  1  0.75000000  0.42073625  0.78897966  1
  Br  Br7  1  0.96582556  0.26254054  0.60681153  1
  Br  Br8  1  0.25000000  0.10725139  0.79871027  1
  Br  Br9  1  0.03417444  0.23745946  0.10681153  1
  Br  Br10  1  0.25000000  0.07926375  0.28897966  1
  Br  Br11  1  0.25000000  0.59454515  0.97345837  1
  Br  Br12  1  0.75000000  0.08680199  0.92212060  1
  Br  Br13  1  0.03417444  0.73745946  0.39318847  1
  Br  Br14  1  0.25000000  0.41319801  0.42212060  1
  Br  Br15  1  0.75000000  0.92073625  0.71102034  1
  Br  Br16  1  0.96582556  0.76254054  0.89318847  1
  Br  Br17  1  0.75000000  0.66663571  0.12417621  1
  Br  Br18  1  0.25000000  0.33336429  0.87582379  1
  Br  Br19  1  0.53417444  0.76254054  0.89318847  1
  Br  Br20  1  0.75000000  0.40545485  0.02654163  1
  Br  Br21  1  0.53417444  0.26254054  0.60681153  1
  Br  Br22  1  0.25000000  0.60725139  0.70128973  1
  Br  Br23  1  0.75000000  0.58680199  0.57787940  1
  Br  Br24  1  0.75000000  0.16663571  0.37582379  1
  Br  Br25  1  0.75000000  0.89274861  0.20128973  1
  Br  Br26  1  0.25000000  0.09454515  0.52654163  1
  Br  Br27  1  0.46582556  0.23745946  0.10681153  1
  Br  Br28  1  0.75000000  0.90545485  0.47345837  1
  Br  Br29  1  0.25000000  0.91319801  0.07787940  1
  Br  Br30  1  0.25000000  0.57926375  0.21102034  1
  Br  Br31  1  0.46582556  0.73745946  0.39318847  1
