# generated using pymatgen
data_Cd3AsI3
_symmetry_space_group_name_H-M   'P 1'
_cell_length_a   4.56130821
_cell_length_b   9.21327894
_cell_length_c   7.56142001
_cell_angle_alpha   89.23343316
_cell_angle_beta   90.00000000
_cell_angle_gamma   119.67501197
_symmetry_Int_Tables_number   1
_chemical_formula_structural   Cd3AsI3
_chemical_formula_sum   'Cd3 As1 I3'
_cell_volume   276.05719472
_cell_formula_units_Z   1
loop_
 _symmetry_equiv_pos_site_id
 _symmetry_equiv_pos_as_xyz
  1  'x, y, z'
loop_
 _atom_site_type_symbol
 _atom_site_label
 _atom_site_symmetry_multiplicity
 _atom_site_fract_x
 _atom_site_fract_y
 _atom_site_fract_z
 _atom_site_occupancy
  Cd  Cd0  1  0.33695876  0.83695876  0.60137278  1
  Cd  Cd1  1  0.71484317  0.71484317  0.05529237  1
  Cd  Cd2  1  0.63451268  0.13451268  0.05991874  1
  As  As3  1  0.33112970  0.83112970  0.94410750  1
  I  I4  1  0.34496368  0.34496368  0.94587318  1
  I  I5  1  0.64546695  0.64546695  0.44843065  1
  I  I6  1  0.65879206  0.15879206  0.43700479  1
