# generated using pymatgen
data_Sr3Ga3N5
_symmetry_space_group_name_H-M   'P 1'
_cell_length_a   6.00007991
_cell_length_b   7.27846084
_cell_length_c   8.76075511
_cell_angle_alpha   108.38610868
_cell_angle_beta   103.65948370
_cell_angle_gamma   95.44154170
_symmetry_Int_Tables_number   1
_chemical_formula_structural   Sr3Ga3N5
_chemical_formula_sum   'Sr6 Ga6 N10'
_cell_volume   346.79641151
_cell_formula_units_Z   2
loop_
 _symmetry_equiv_pos_site_id
 _symmetry_equiv_pos_as_xyz
  1  'x, y, z'
loop_
 _atom_site_type_symbol
 _atom_site_label
 _atom_site_symmetry_multiplicity
 _atom_site_fract_x
 _atom_site_fract_y
 _atom_site_fract_z
 _atom_site_occupancy
  Sr  Sr0  1  0.66754969  0.86207521  0.87363788  1
  Sr  Sr1  1  0.33245031  0.13792479  0.12636212  1
  Sr  Sr2  1  0.18313243  0.58835494  0.39231264  1
  Sr  Sr3  1  0.65687423  0.65588454  0.20272740  1
  Sr  Sr4  1  0.34312577  0.34411546  0.79727260  1
  Sr  Sr5  1  0.81686757  0.41164506  0.60768736  1
  Ga  Ga6  1  0.70978051  0.95498970  0.56852642  1
  Ga  Ga7  1  0.29021949  0.04501030  0.43147358  1
  Ga  Ga8  1  0.09159621  0.68413446  0.02656296  1
  Ga  Ga9  1  0.87782677  0.12270510  0.28401634  1
  Ga  Ga10  1  0.90840379  0.31586554  0.97343704  1
  Ga  Ga11  1  0.12217323  0.87729490  0.71598366  1
  N  N12  1  0.61409068  0.05337074  0.38201034  1
  N  N13  1  0.74294128  0.22296597  0.10930979  1
  N  N14  1  0.04379722  0.89199241  0.22161130  1
  N  N15  1  0.16225453  0.28841073  0.47420996  1
  N  N16  1  0.95620278  0.10800759  0.77838870  1
  N  N17  1  0.25705872  0.77703403  0.89069021  1
  N  N18  1  0.38590932  0.94662926  0.61798966  1
  N  N19  1  0.76469859  0.52567842  0.90480090  1
  N  N20  1  0.23530141  0.47432158  0.09519910  1
  N  N21  1  0.83774547  0.71158927  0.52579004  1
