# generated using pymatgen
data_LiCoSiO4
_symmetry_space_group_name_H-M   'P 1'
_cell_length_a   6.64871643
_cell_length_b   10.40435762
_cell_length_c   5.08049040
_cell_angle_alpha   90.00000000
_cell_angle_beta   90.00000000
_cell_angle_gamma   90.00000000
_symmetry_Int_Tables_number   1
_chemical_formula_structural   LiCoSiO4
_chemical_formula_sum   'Li4 Co4 Si4 O16'
_cell_volume   351.44609086
_cell_formula_units_Z   4
loop_
 _symmetry_equiv_pos_site_id
 _symmetry_equiv_pos_as_xyz
  1  'x, y, z'
loop_
 _atom_site_type_symbol
 _atom_site_label
 _atom_site_symmetry_multiplicity
 _atom_site_fract_x
 _atom_site_fract_y
 _atom_site_fract_z
 _atom_site_occupancy
  Co  Co0  1  0.01330895  0.66815299  0.26153967  1
  Co  Co1  1  0.48669105  0.16815299  0.26153967  1
  Co  Co2  1  0.51330895  0.83184701  0.76153967  1
  Co  Co3  1  0.98669105  0.33184701  0.76153967  1
  Li  Li4  1  0.00952879  0.84525340  0.75909087  1
  Li  Li5  1  0.49047121  0.34525340  0.75909087  1
  Li  Li6  1  0.50952879  0.65474660  0.25909087  1
  Li  Li7  1  0.99047121  0.15474660  0.25909087  1
  O  O8  1  0.03872734  0.33538544  0.12284343  1
  O  O9  1  0.06008918  0.83859159  0.14912315  1
  O  O10  1  0.26141519  0.06224394  0.21014413  1
  O  O11  1  0.22168207  0.37656303  0.58222709  1
  O  O12  1  0.27831793  0.87656303  0.58222709  1
  O  O13  1  0.23858481  0.56224394  0.21014413  1
  O  O14  1  0.43991082  0.33859159  0.14912315  1
  O  O15  1  0.46127266  0.83538544  0.12284343  1
  O  O16  1  0.53872734  0.16461456  0.62284343  1
  O  O17  1  0.56008918  0.66140841  0.64912315  1
  O  O18  1  0.76141519  0.43775606  0.71014413  1
  O  O19  1  0.72168207  0.12343697  0.08222709  1
  O  O20  1  0.77831793  0.62343697  0.08222709  1
  O  O21  1  0.73858481  0.93775606  0.71014413  1
  O  O22  1  0.93991082  0.16140841  0.64912315  1
  O  O23  1  0.96127266  0.66461456  0.62284343  1
  Si  Si24  1  0.23318180  0.40636643  0.26280465  1
  Si  Si25  1  0.26681820  0.90636643  0.26280465  1
  Si  Si26  1  0.73318180  0.09363357  0.76280465  1
  Si  Si27  1  0.76681820  0.59363357  0.76280465  1
