# generated using pymatgen
data_OsOF5
_symmetry_space_group_name_H-M   'P 1'
_cell_length_a   5.16551066
_cell_length_b   8.88246860
_cell_length_c   9.68595095
_cell_angle_alpha   90.00000000
_cell_angle_beta   90.00000000
_cell_angle_gamma   90.00000000
_symmetry_Int_Tables_number   1
_chemical_formula_structural   OsOF5
_chemical_formula_sum   'Os4 O4 F20'
_cell_volume   444.41551119
_cell_formula_units_Z   4
loop_
 _symmetry_equiv_pos_site_id
 _symmetry_equiv_pos_as_xyz
  1  'x, y, z'
loop_
 _atom_site_type_symbol
 _atom_site_label
 _atom_site_symmetry_multiplicity
 _atom_site_fract_x
 _atom_site_fract_y
 _atom_site_fract_z
 _atom_site_occupancy
  Os  Os0  1  0.91837959  0.16657544  0.37247049  1
  Os  Os1  1  0.41837959  0.66657544  0.12752951  1
  Os  Os2  1  0.58162041  0.16657544  0.87247049  1
  Os  Os3  1  0.08162041  0.66657544  0.62752951  1
  O  O4  1  0.05050270  0.02879396  0.27416506  1
  O  O5  1  0.94949730  0.52879396  0.72583494  1
  O  O6  1  0.55050270  0.52879396  0.22583494  1
  O  O7  1  0.44949730  0.02879396  0.77416506  1
  F  F8  1  0.80199219  0.67842634  0.50368871  1
  F  F9  1  0.93934296  0.82544848  0.73146149  1
  F  F10  1  0.75265402  0.03553339  0.99476001  1
  F  F11  1  0.43934296  0.32544848  0.76853851  1
  F  F12  1  0.69800781  0.67842634  0.00368871  1
  F  F13  1  0.27223517  0.82267320  0.01796530  1
  F  F14  1  0.30199219  0.17842634  0.99631129  1
  F  F15  1  0.72776483  0.32267320  0.98203470  1
  F  F16  1  0.22776483  0.82267320  0.51796530  1
  F  F17  1  0.77223517  0.32267320  0.48203470  1
  F  F18  1  0.11090748  0.68154919  0.23106864  1
  F  F19  1  0.24734598  0.53553339  0.00523999  1
  F  F20  1  0.25265402  0.53553339  0.50523999  1
  F  F21  1  0.19800781  0.17842634  0.49631129  1
  F  F22  1  0.38909252  0.68154919  0.73106864  1
  F  F23  1  0.06065704  0.32544848  0.26853851  1
  F  F24  1  0.61090748  0.18154919  0.26893136  1
  F  F25  1  0.56065704  0.82544848  0.23146149  1
  F  F26  1  0.74734598  0.03553339  0.49476001  1
  F  F27  1  0.88909252  0.18154919  0.76893136  1
