# generated using pymatgen
data_CaBe3O4
_symmetry_space_group_name_H-M   'P 1'
_cell_length_a   4.57658503
_cell_length_b   4.57653761
_cell_length_c   8.78688632
_cell_angle_alpha   89.99991177
_cell_angle_beta   90.00008884
_cell_angle_gamma   119.99987732
_symmetry_Int_Tables_number   1
_chemical_formula_structural   CaBe3O4
_chemical_formula_sum   'Ca2 Be6 O8'
_cell_volume   159.38400943
_cell_formula_units_Z   2
loop_
 _symmetry_equiv_pos_site_id
 _symmetry_equiv_pos_as_xyz
  1  'x, y, z'
loop_
 _atom_site_type_symbol
 _atom_site_label
 _atom_site_symmetry_multiplicity
 _atom_site_fract_x
 _atom_site_fract_y
 _atom_site_fract_z
 _atom_site_occupancy
  Ca  Ca0  1  0.33332389  0.66667836  0.24999983  1
  Ca  Ca1  1  0.66668023  0.33335646  0.74999999  1
  Be  Be2  1  0.33333547  0.66666508  0.57075357  1
  Be  Be3  1  0.00000333  0.99999459  0.99999973  1
  Be  Be4  1  0.00000170  0.99999304  0.49999993  1
  Be  Be5  1  0.33333538  0.66666373  0.92924631  1
  Be  Be6  1  0.66666611  0.33333023  0.07075365  1
  Be  Be7  1  0.66666522  0.33332882  0.42924651  1
  O  O8  1  0.00000110  0.66514777  0.00000025  1
  O  O9  1  0.99999982  0.66514837  0.50000006  1
  O  O10  1  0.33332776  0.66665416  0.75000062  1
  O  O11  1  0.33486197  0.33486437  0.99999974  1
  O  O12  1  0.33486131  0.33486435  0.50000003  1
  O  O13  1  0.66666824  0.33332408  0.24999964  1
  O  O14  1  0.66514161  0.00000390  0.00000079  1
  O  O15  1  0.66513685  0.00000368  0.49999935  1
