# generated using pymatgen
data_TaRhO4
_symmetry_space_group_name_H-M   'P 1'
_cell_length_a   5.67313830
_cell_length_b   5.67313830
_cell_length_c   5.67313830
_cell_angle_alpha   73.28184440
_cell_angle_beta   106.71815560
_cell_angle_gamma   64.87009810
_symmetry_Int_Tables_number   1
_chemical_formula_structural   TaRhO4
_chemical_formula_sum   'Ta2 Rh2 O8'
_cell_volume   139.51720284
_cell_formula_units_Z   2
loop_
 _symmetry_equiv_pos_site_id
 _symmetry_equiv_pos_as_xyz
  1  'x, y, z'
loop_
 _atom_site_type_symbol
 _atom_site_label
 _atom_site_symmetry_multiplicity
 _atom_site_fract_x
 _atom_site_fract_y
 _atom_site_fract_z
 _atom_site_occupancy
  Ta  Ta0  1  0.26102079  0.23897921  0.50000000  1
  Ta  Ta1  1  0.01102079  0.98897921  0.00000000  1
  Rh  Rh2  1  0.74869620  0.75130380  0.50000000  1
  Rh  Rh3  1  0.49869620  0.50130380  0.00000000  1
  O  O4  1  0.03438681  0.76296264  0.79734945  1
  O  O5  1  0.56070274  0.24189636  0.80259910  1
  O  O6  1  0.00810364  0.29449547  0.69740090  1
  O  O7  1  0.48703736  0.81031208  0.70265055  1
  O  O8  1  0.00810364  0.68929726  0.30259910  1
  O  O9  1  0.48703736  0.21561319  0.29734945  1
  O  O10  1  0.95550453  0.24189636  0.19740090  1
  O  O11  1  0.43968792  0.76296264  0.20265055  1
