# generated using pymatgen
data_TiVO4
_symmetry_space_group_name_H-M   'P 1'
_cell_length_a   5.48215698
_cell_length_b   5.48215698
_cell_length_c   5.48215698
_cell_angle_alpha   72.52143677
_cell_angle_beta   107.47856323
_cell_angle_gamma   66.46544371
_symmetry_Int_Tables_number   1
_chemical_formula_structural   TiVO4
_chemical_formula_sum   'Ti2 V2 O8'
_cell_volume   126.35107687
_cell_formula_units_Z   2
loop_
 _symmetry_equiv_pos_site_id
 _symmetry_equiv_pos_as_xyz
  1  'x, y, z'
loop_
 _atom_site_type_symbol
 _atom_site_label
 _atom_site_symmetry_multiplicity
 _atom_site_fract_x
 _atom_site_fract_y
 _atom_site_fract_z
 _atom_site_occupancy
  Ti  Ti0  1  0.74476063  0.75523937  0.50000000  1
  Ti  Ti1  1  0.49476063  0.50523937  0.00000000  1
  V  V2  1  0.24939284  0.25060716  0.50000000  1
  V  V3  1  0.99939284  0.00060716  0.00000000  1
  O  O4  1  0.54544175  0.25117867  0.79662042  1
  O  O5  1  0.05889038  0.74589807  0.80478745  1
  O  O6  1  0.99882133  0.29780009  0.70337958  1
  O  O7  1  0.50410193  0.80068551  0.69521255  1
  O  O8  1  0.99882133  0.70455825  0.29662042  1
  O  O9  1  0.50410193  0.19110962  0.30478745  1
  O  O10  1  0.95219991  0.25117867  0.20337958  1
  O  O11  1  0.44931449  0.74589807  0.19521255  1
