# generated using pymatgen
data_NbBr2O
_symmetry_space_group_name_H-M   'P 1'
_cell_length_a   3.96320005
_cell_length_b   7.09595839
_cell_length_c   7.62368072
_cell_angle_alpha   103.99064887
_cell_angle_beta   105.05302016
_cell_angle_gamma   90.00147945
_symmetry_Int_Tables_number   1
_chemical_formula_structural   NbBr2O
_chemical_formula_sum   'Nb2 Br4 O2'
_cell_volume   200.44786099
_cell_formula_units_Z   2
loop_
 _symmetry_equiv_pos_site_id
 _symmetry_equiv_pos_as_xyz
  1  'x, y, z'
loop_
 _atom_site_type_symbol
 _atom_site_label
 _atom_site_symmetry_multiplicity
 _atom_site_fract_x
 _atom_site_fract_y
 _atom_site_fract_z
 _atom_site_occupancy
  Br  Br0  1  0.92965318  0.93550487  0.74997030  1
  Nb  Nb1  1  0.00324077  0.71484634  0.99973455  1
  O  O2  1  0.54122775  0.72093037  0.99948948  1
  Br  Br3  1  0.89946049  0.42260316  0.70430883  1
  Br  Br4  1  0.19546485  0.57730803  0.29555788  1
  O  O5  1  0.54162647  0.27902549  0.00042326  1
  Br  Br6  1  0.17862648  0.06460561  0.25026865  1
  Nb  Nb7  1  0.00350002  0.28517614  0.00024705  1
