# generated using pymatgen
data_Er2Ge2O7
_symmetry_space_group_name_H-M   'P 1'
_cell_length_a   6.82707987
_cell_length_b   6.82707987
_cell_length_c   12.43309573
_cell_angle_alpha   90.00000000
_cell_angle_beta   90.00000000
_cell_angle_gamma   90.00000000
_symmetry_Int_Tables_number   1
_chemical_formula_structural   Er2Ge2O7
_chemical_formula_sum   'Er8 Ge8 O28'
_cell_volume   579.49440196
_cell_formula_units_Z   4
loop_
 _symmetry_equiv_pos_site_id
 _symmetry_equiv_pos_as_xyz
  1  'x, y, z'
loop_
 _atom_site_type_symbol
 _atom_site_label
 _atom_site_symmetry_multiplicity
 _atom_site_fract_x
 _atom_site_fract_y
 _atom_site_fract_z
 _atom_site_occupancy
  O  O0  1  0.85691772  0.31902258  0.95555928  1
  O  O1  1  0.14308228  0.68097742  0.45555928  1
  O  O2  1  0.31902258  0.85691772  0.04444072  1
  O  O3  1  0.81902258  0.64308228  0.70555928  1
  O  O4  1  0.18097742  0.35691772  0.20555928  1
  O  O5  1  0.64308228  0.81902258  0.29444072  1
  O  O6  1  0.35691772  0.18097742  0.79444072  1
  O  O7  1  0.68097742  0.14308228  0.54444072  1
  O  O8  1  0.66171508  0.93452414  0.92923405  1
  O  O9  1  0.33828492  0.06547586  0.42923405  1
  O  O10  1  0.93452414  0.66171508  0.07076595  1
  O  O11  1  0.43452414  0.83828492  0.67923405  1
  O  O12  1  0.56547586  0.16171508  0.17923405  1
  O  O13  1  0.83828492  0.43452414  0.32076595  1
  O  O14  1  0.16171508  0.56547586  0.82076595  1
  O  O15  1  0.06547586  0.33828492  0.57076595  1
  O  O16  1  0.80358913  0.19641087  0.75000000  1
  O  O17  1  0.30358913  0.30358913  0.00000000  1
  O  O18  1  0.69641087  0.69641087  0.50000000  1
  O  O19  1  0.19641087  0.80358913  0.25000000  1
  O  O20  1  0.07927141  0.96645038  0.62218911  1
  O  O21  1  0.53354962  0.57927141  0.87218911  1
  O  O22  1  0.46645038  0.42072859  0.37218911  1
  O  O23  1  0.57927141  0.53354962  0.12781089  1
  O  O24  1  0.42072859  0.46645038  0.62781089  1
  O  O25  1  0.92072859  0.03354962  0.12218911  1
  O  O26  1  0.96645038  0.07927141  0.37781089  1
  O  O27  1  0.03354962  0.92072859  0.87781089  1
  Ge  Ge28  1  0.84895306  0.09969024  0.88149198  1
  Ge  Ge29  1  0.15104694  0.90030976  0.38149198  1
  Ge  Ge30  1  0.09969024  0.84895306  0.11850802  1
  Ge  Ge31  1  0.59969024  0.65104694  0.63149198  1
  Ge  Ge32  1  0.40030976  0.34895306  0.13149198  1
  Ge  Ge33  1  0.65104694  0.59969024  0.36850802  1
  Ge  Ge34  1  0.34895306  0.40030976  0.86850802  1
  Ge  Ge35  1  0.90030976  0.15104694  0.61850802  1
  Er  Er36  1  0.64602001  0.12579029  0.36497716  1
  Er  Er37  1  0.35397999  0.87420971  0.86497716  1
  Er  Er38  1  0.12579029  0.64602001  0.63502284  1
  Er  Er39  1  0.62579029  0.85397999  0.11497716  1
  Er  Er40  1  0.37420971  0.14602001  0.61497716  1
  Er  Er41  1  0.85397999  0.62579029  0.88502284  1
  Er  Er42  1  0.14602001  0.37420971  0.38502284  1
  Er  Er43  1  0.87420971  0.35397999  0.13502284  1
