# generated using pymatgen
data_Na3Ti2P2O10F
_symmetry_space_group_name_H-M   'P 1'
_cell_length_a   6.48668024
_cell_length_b   6.48668024
_cell_length_c   7.06978887
_cell_angle_alpha   117.04196845
_cell_angle_beta   117.04196845
_cell_angle_gamma   90.20773128
_symmetry_Int_Tables_number   1
_chemical_formula_structural   Na3Ti2P2O10F
_chemical_formula_sum   'Na3 Ti2 P2 O10 F1'
_cell_volume   227.54213158
_cell_formula_units_Z   1
loop_
 _symmetry_equiv_pos_site_id
 _symmetry_equiv_pos_as_xyz
  1  'x, y, z'
loop_
 _atom_site_type_symbol
 _atom_site_label
 _atom_site_symmetry_multiplicity
 _atom_site_fract_x
 _atom_site_fract_y
 _atom_site_fract_z
 _atom_site_occupancy
  Na  Na0  1  0.25835580  0.29798661  0.99792852  1
  Na  Na1  1  0.73734318  0.26265682  -0.00000000  1
  Na  Na2  1  0.70201339  0.74164420  0.00207148  1
  Ti  Ti3  1  0.20820492  0.19156387  0.39961633  1
  Ti  Ti4  1  0.80843613  0.79179508  0.60038367  1
  P  P5  1  0.24886318  0.75113682  0.50000000  1
  P  P6  1  0.74801558  0.25198442  0.50000000  1
  O  O7  1  0.14724787  0.84353254  0.67584955  1
  O  O8  1  0.15646746  0.85275213  0.32415045  1
  O  O9  1  0.16417492  0.47355457  0.33214269  1
  O  O10  1  0.37568905  0.33638211  0.71465518  1
  O  O11  1  0.52644543  0.83582508  0.66785731  1
  O  O12  1  0.47167407  0.16951929  0.32346942  1
  O  O13  1  0.66361789  0.62431095  0.28534482  1
  O  O14  1  0.83048071  0.52832593  0.67653058  1
  O  O15  1  0.82965616  0.14043167  0.66700422  1
  O  O16  1  0.85956833  0.17034384  0.33299578  1
  F  F17  1  0.98964794  0.01035206  -0.00000000  1
