# generated using pymatgen
data_Ca5NbN5
_symmetry_space_group_name_H-M   'P 1'
_cell_length_a   12.07770641
_cell_length_b   6.99259168
_cell_length_c   8.84469410
_cell_angle_alpha   90.00000000
_cell_angle_beta   100.58159789
_cell_angle_gamma   90.00000000
_symmetry_Int_Tables_number   1
_chemical_formula_structural   Ca5NbN5
_chemical_formula_sum   'Ca20 Nb4 N20'
_cell_volume   734.27119123
_cell_formula_units_Z   4
loop_
 _symmetry_equiv_pos_site_id
 _symmetry_equiv_pos_as_xyz
  1  'x, y, z'
loop_
 _atom_site_type_symbol
 _atom_site_label
 _atom_site_symmetry_multiplicity
 _atom_site_fract_x
 _atom_site_fract_y
 _atom_site_fract_z
 _atom_site_occupancy
  Ca  Ca0  1  0.38354259  0.74229198  0.83910059  1
  Ca  Ca1  1  0.12733182  -0.00000000  0.82602046  1
  Ca  Ca2  1  0.26552736  -0.00000000  0.53262876  1
  Ca  Ca3  1  0.49691770  0.75505687  0.50723971  1
  Ca  Ca4  1  0.61923146  0.76190872  0.14997761  1
  Ca  Ca5  1  0.38354259  0.25770802  0.83910059  1
  Ca  Ca6  1  0.49691770  0.24494313  0.50723971  1
  Ca  Ca7  1  0.75966488  -0.00000000  0.49178962  1
  Ca  Ca8  1  0.85508622  -0.00000000  0.16467104  1
  Ca  Ca9  1  0.61923146  0.23809128  0.14997761  1
  Ca  Ca10  1  0.88354259  0.24229198  0.83910059  1
  Ca  Ca11  1  0.62733182  0.50000000  0.82602046  1
  Ca  Ca12  1  0.76552736  0.50000000  0.53262876  1
  Ca  Ca13  1  0.99691770  0.25505687  0.50723971  1
  Ca  Ca14  1  0.11923146  0.26190872  0.14997761  1
  Ca  Ca15  1  0.88354259  0.75770802  0.83910059  1
  Ca  Ca16  1  0.99691770  0.74494313  0.50723971  1
  Ca  Ca17  1  0.25966488  0.50000000  0.49178962  1
  Ca  Ca18  1  0.35508622  0.50000000  0.16467104  1
  Ca  Ca19  1  0.11923146  0.73809128  0.14997761  1
  Nb  Nb20  1  0.36629256  -0.00000000  0.21939063  1
  Nb  Nb21  1  0.63049315  -0.00000000  0.77087051  1
  Nb  Nb22  1  0.86629256  0.50000000  0.21939063  1
  Nb  Nb23  1  0.13049315  0.50000000  0.77087051  1
  N  N24  1  0.30666554  0.77547722  0.32291416  1
  N  N25  1  0.00587555  -0.00000000  0.03186963  1
  N  N26  1  0.31878802  -0.00000000  0.99744593  1
  N  N27  1  0.46269223  -0.00000000  0.69146919  1
  N  N28  1  0.30666554  0.22452278  0.32291416  1
  N  N29  1  0.68759011  0.77333986  0.67248118  1
  N  N30  1  0.53274884  -0.00000000  0.29859556  1
  N  N31  1  0.68219620  -0.00000000  0.99197351  1
  N  N32  1  0.94312040  -0.00000000  0.64565067  1
  N  N33  1  0.68759011  0.22666014  0.67248118  1
  N  N34  1  0.80666554  0.27547722  0.32291416  1
  N  N35  1  0.50587555  0.50000000  0.03186963  1
  N  N36  1  0.81878802  0.50000000  0.99744593  1
  N  N37  1  0.96269223  0.50000000  0.69146919  1
  N  N38  1  0.80666554  0.72452278  0.32291416  1
  N  N39  1  0.18759011  0.27333986  0.67248118  1
  N  N40  1  0.03274884  0.50000000  0.29859556  1
  N  N41  1  0.18219620  0.50000000  0.99197351  1
  N  N42  1  0.44312040  0.50000000  0.64565067  1
  N  N43  1  0.18759011  0.72666014  0.67248118  1
