# generated using pymatgen
data_BPPbO5
_symmetry_space_group_name_H-M   'P 1'
_cell_length_a   7.01423094
_cell_length_b   7.01423095
_cell_length_c   6.93855810
_cell_angle_alpha   90.00000000
_cell_angle_beta   90.00000000
_cell_angle_gamma   119.99999997
_symmetry_Int_Tables_number   1
_chemical_formula_structural   BPPbO5
_chemical_formula_sum   'B3 P3 Pb3 O15'
_cell_volume   295.63781435
_cell_formula_units_Z   3
loop_
 _symmetry_equiv_pos_site_id
 _symmetry_equiv_pos_as_xyz
  1  'x, y, z'
loop_
 _atom_site_type_symbol
 _atom_site_label
 _atom_site_symmetry_multiplicity
 _atom_site_fract_x
 _atom_site_fract_y
 _atom_site_fract_z
 _atom_site_occupancy
  B  B0  1  0.09814233  0.09814233  0.00000000  1
  B  B1  1  0.00000000  0.90185767  0.66666667  1
  B  B2  1  0.90185767  0.00000000  0.33333333  1
  O  O3  1  0.86099322  0.44257338  0.02448995  1
  O  O4  1  0.55742662  0.41841984  0.35782328  1
  O  O5  1  0.58158016  0.13900678  0.69115661  1
  O  O6  1  0.95743167  0.00000000  0.83333333  1
  O  O7  1  0.00000000  0.95743167  0.16666667  1
  O  O8  1  0.04256833  0.04256833  0.50000000  1
  O  O9  1  0.33147487  0.14576608  0.96200833  1
  O  O10  1  0.85423392  0.18570879  0.29534166  1
  O  O11  1  0.81429121  0.66852513  0.62867499  1
  O  O12  1  0.18570879  0.85423392  0.70465834  1
  O  O13  1  0.66852513  0.81429121  0.37132501  1
  O  O14  1  0.14576608  0.33147487  0.03799167  1
  O  O15  1  0.44257338  0.86099322  0.97551005  1
  O  O16  1  0.13900678  0.58158016  0.30884339  1
  O  O17  1  0.41841984  0.55742662  0.64217672  1
  P  P18  1  0.60002263  0.60002263  0.50000000  1
  P  P19  1  0.00000000  0.39997737  0.16666667  1
  P  P20  1  0.39997737  0.00000000  0.83333333  1
  Pb  Pb21  1  0.61053399  0.61053399  0.00000000  1
  Pb  Pb22  1  0.00000000  0.38946601  0.66666667  1
  Pb  Pb23  1  0.38946601  0.00000000  0.33333333  1
