# generated using pymatgen
data_Li2MnF4
_symmetry_space_group_name_H-M   'P 1'
_cell_length_a   4.74372936
_cell_length_b   5.51677072
_cell_length_c   4.74372936
_cell_angle_alpha   64.53642256
_cell_angle_beta   90.00000000
_cell_angle_gamma   115.46357744
_symmetry_Int_Tables_number   1
_chemical_formula_structural   Li2MnF4
_chemical_formula_sum   'Li2 Mn1 F4'
_cell_volume   98.56009869
_cell_formula_units_Z   1
loop_
 _symmetry_equiv_pos_site_id
 _symmetry_equiv_pos_as_xyz
  1  'x, y, z'
loop_
 _atom_site_type_symbol
 _atom_site_label
 _atom_site_symmetry_multiplicity
 _atom_site_fract_x
 _atom_site_fract_y
 _atom_site_fract_z
 _atom_site_occupancy
  Li  Li0  1  0.50000000  0.00000000  0.50000000  1
  Li  Li1  1  0.75000000  0.50000000  0.75000000  1
  Mn  Mn2  1  0.00000000  0.00000000  0.00000000  1
  F  F3  1  0.40837626  0.23141663  0.11349110  1
  F  F4  1  0.65509227  0.76858337  0.40837626  1
  F  F5  1  0.82304037  0.23141663  0.65509227  1
  F  F6  1  0.11349110  0.76858337  0.82304037  1
