# generated using pymatgen
data_Li9CrN5
_symmetry_space_group_name_H-M   'P 1'
_cell_length_a   6.79159772
_cell_length_b   18.89164863
_cell_length_c   8.98791426
_cell_angle_alpha   18.04876001
_cell_angle_beta   55.69399782
_cell_angle_gamma   51.33745242
_symmetry_Int_Tables_number   1
_chemical_formula_structural   Li9CrN5
_chemical_formula_sum   'Li18 Cr2 N10'
_cell_volume   276.77644864
_cell_formula_units_Z   2
loop_
 _symmetry_equiv_pos_site_id
 _symmetry_equiv_pos_as_xyz
  1  'x, y, z'
loop_
 _atom_site_type_symbol
 _atom_site_label
 _atom_site_symmetry_multiplicity
 _atom_site_fract_x
 _atom_site_fract_y
 _atom_site_fract_z
 _atom_site_occupancy
  Li  Li0  1  0.03984009  0.14157482  0.28322241  1
  Li  Li1  1  0.34019697  0.02540999  0.80835961  1
  Li  Li2  1  0.45542581  0.32251202  0.29629874  1
  Li  Li3  1  0.25680597  0.23896047  0.77586910  1
  Li  Li4  1  0.86213108  0.03130205  0.79364390  1
  Li  Li5  1  0.34122540  0.54752388  0.27396380  1
  Li  Li6  1  0.13054616  0.47418134  0.71213183  1
  Li  Li7  1  0.96945384  0.32581866  0.28786817  1
  Li  Li8  1  0.75877460  0.25247612  0.72603620  1
  Li  Li9  1  0.23786892  0.76869795  0.20635610  1
  Li  Li10  1  0.06015991  0.65842518  0.71677759  1
  Li  Li11  1  0.64457419  0.47748798  0.70370126  1
  Li  Li12  1  0.84319403  0.56103953  0.22413090  1
  Li  Li13  1  0.12308417  0.95544010  0.24578439  1
  Li  Li14  1  0.75980303  0.77459001  0.19164039  1
  Li  Li15  1  0.43236949  0.84649224  0.75568034  1
  Li  Li16  1  0.66763051  0.95350776  0.24431966  1
  Li  Li17  1  0.97691583  0.84455990  0.75421561  1
  Cr  Cr18  1  0.55297760  0.15273025  0.24267475  1
  Cr  Cr19  1  0.54702240  0.64726975  0.75732525  1
  N  N20  1  0.00360094  0.99554016  0.00892098  1
  N  N21  1  0.49555873  0.95192770  0.11387414  1
  N  N22  1  0.41687927  0.19694209  0.03125616  1
  N  N23  1  0.34378519  0.35775927  0.04723578  1
  N  N24  1  0.84928806  0.21111732  0.00075611  1
  N  N25  1  0.25071194  0.58888268  0.99924389  1
  N  N26  1  0.75621481  0.44224073  0.95276422  1
  N  N27  1  0.09639906  0.80445984  0.99107902  1
  N  N28  1  0.68312073  0.60305791  0.96874384  1
  N  N29  1  0.60444127  0.84807230  0.88612586  1
