# generated using pymatgen
data_Si2H2O3
_symmetry_space_group_name_H-M   'P 1'
_cell_length_a   7.52216176
_cell_length_b   7.52216176
_cell_length_c   7.52216176
_cell_angle_alpha   77.96467240
_cell_angle_beta   77.96467235
_cell_angle_gamma   77.96467243
_symmetry_Int_Tables_number   1
_chemical_formula_structural   Si2H2O3
_chemical_formula_sum   'Si8 H8 O12'
_cell_volume   401.01468251
_cell_formula_units_Z   4
loop_
 _symmetry_equiv_pos_site_id
 _symmetry_equiv_pos_as_xyz
  1  'x, y, z'
loop_
 _atom_site_type_symbol
 _atom_site_label
 _atom_site_symmetry_multiplicity
 _atom_site_fract_x
 _atom_site_fract_y
 _atom_site_fract_z
 _atom_site_occupancy
  H  H0  1  0.74372563  0.90934887  0.11691534  1
  H  H1  1  0.90934887  0.11691534  0.74372563  1
  H  H2  1  0.11691534  0.74372563  0.90934887  1
  H  H3  1  0.25627437  0.09065113  0.88308466  1
  H  H4  1  0.09065113  0.88308466  0.25627437  1
  H  H5  1  0.88308466  0.25627437  0.09065113  1
  H  H6  1  0.77068457  0.77068457  0.77068457  1
  H  H7  1  0.22931543  0.22931543  0.22931543  1
  O  O8  1  0.54324230  0.30131787  0.23115865  1
  O  O9  1  0.23115865  0.54324230  0.30131787  1
  O  O10  1  0.30131787  0.23115865  0.54324230  1
  O  O11  1  0.45675770  0.69868213  0.76884135  1
  O  O12  1  0.76884135  0.45675770  0.69868213  1
  O  O13  1  0.69868213  0.76884135  0.45675770  1
  O  O14  1  0.80838439  0.25309646  0.43532892  1
  O  O15  1  0.43532892  0.80838439  0.25309646  1
  O  O16  1  0.25309646  0.43532892  0.80838439  1
  O  O17  1  0.19161561  0.74690354  0.56467108  1
  O  O18  1  0.56467108  0.19161561  0.74690354  1
  O  O19  1  0.74690354  0.56467108  0.19161561  1
  Si  Si20  1  0.65818147  0.76615951  0.25153042  1
  Si  Si21  1  0.76615951  0.25153042  0.65818147  1
  Si  Si22  1  0.25153042  0.65818147  0.76615951  1
  Si  Si23  1  0.34181853  0.23384049  0.74846958  1
  Si  Si24  1  0.23384049  0.74846958  0.34181853  1
  Si  Si25  1  0.74846958  0.34181853  0.23384049  1
  Si  Si26  1  0.67593897  0.67593897  0.67593897  1
  Si  Si27  1  0.32406103  0.32406103  0.32406103  1
