# generated using pymatgen
data_Pr5CuSe8
_symmetry_space_group_name_H-M   'P 1'
_cell_length_a   7.75442696
_cell_length_b   7.75442662
_cell_length_c   7.75442695
_cell_angle_alpha   110.34789019
_cell_angle_beta   110.34789186
_cell_angle_gamma   107.73175725
_symmetry_Int_Tables_number   1
_chemical_formula_structural   Pr5CuSe8
_chemical_formula_sum   'Pr5 Cu1 Se8'
_cell_volume   358.69723519
_cell_formula_units_Z   1
loop_
 _symmetry_equiv_pos_site_id
 _symmetry_equiv_pos_as_xyz
  1  'x, y, z'
loop_
 _atom_site_type_symbol
 _atom_site_label
 _atom_site_symmetry_multiplicity
 _atom_site_fract_x
 _atom_site_fract_y
 _atom_site_fract_z
 _atom_site_occupancy
  Cu  Cu0  1  0.87500000  0.12500000  0.75000000  1
  Pr  Pr1  1  0.11393058  0.74550318  0.87220392  1
  Pr  Pr2  1  0.25449682  0.62670074  0.36842740  1
  Pr  Pr3  1  0.37329926  0.24172666  0.62779608  1
  Pr  Pr4  1  0.62500000  0.37500000  0.25000000  1
  Pr  Pr5  1  0.75827334  0.88606942  0.13157260  1
  Se  Se6  1  0.48066040  0.98998044  0.85380403  1
  Se  Se7  1  0.52718506  0.01630623  0.38044199  1
  Se  Se8  1  0.13586424  0.14674308  0.11955801  1
  Se  Se9  1  0.37314363  0.51933960  0.00932004  1
  Se  Se10  1  0.63617641  0.62685637  0.64619597  1
  Se  Se11  1  0.98369377  0.86413576  0.51087884  1
  Se  Se12  1  0.85325692  0.47281494  0.98912116  1
  Se  Se13  1  0.01001956  0.36382359  0.49067996  1
