# generated using pymatgen
data_RbV3(SeO6)2
_symmetry_space_group_name_H-M   'P 1'
_cell_length_a   7.16851245
_cell_length_b   7.16851246
_cell_length_c   12.09522617
_cell_angle_alpha   90.00000000
_cell_angle_beta   90.00000000
_cell_angle_gamma   119.99999998
_symmetry_Int_Tables_number   1
_chemical_formula_structural   RbV3(SeO6)2
_chemical_formula_sum   'Rb2 V6 Se4 O24'
_cell_volume   538.27314566
_cell_formula_units_Z   2
loop_
 _symmetry_equiv_pos_site_id
 _symmetry_equiv_pos_as_xyz
  1  'x, y, z'
loop_
 _atom_site_type_symbol
 _atom_site_label
 _atom_site_symmetry_multiplicity
 _atom_site_fract_x
 _atom_site_fract_y
 _atom_site_fract_z
 _atom_site_occupancy
  O  O0  1  0.74921800  0.87520260  0.67810322  1
  O  O1  1  0.87401541  0.74921800  0.17810322  1
  O  O2  1  0.87520260  0.12598459  0.17810322  1
  O  O3  1  0.12479740  0.87401541  0.67810322  1
  O  O4  1  0.12598459  0.25078200  0.67810322  1
  O  O5  1  0.25078200  0.12479740  0.17810322  1
  O  O6  1  0.54134312  0.08283823  0.73233520  1
  O  O7  1  0.45850489  0.54134312  0.23233520  1
  O  O8  1  0.08283823  0.54149511  0.23233520  1
  O  O9  1  0.91716177  0.45850489  0.73233520  1
  O  O10  1  0.54149511  0.45865688  0.73233520  1
  O  O11  1  0.45865688  0.91716177  0.23233520  1
  O  O12  1  0.20086206  0.78824587  0.04953775  1
  O  O13  1  0.41261619  0.20086206  0.54953775  1
  O  O14  1  0.78824587  0.58738381  0.54953775  1
  O  O15  1  0.21175413  0.41261619  0.04953775  1
  O  O16  1  0.58738381  0.79913794  0.04953775  1
  O  O17  1  0.79913794  0.21175413  0.54953775  1
  O  O18  1  0.12292630  0.86881027  0.36227674  1
  O  O19  1  0.25411603  0.12292630  0.86227674  1
  O  O20  1  0.86881027  0.74588397  0.86227674  1
  O  O21  1  0.13118973  0.25411603  0.36227674  1
  O  O22  1  0.74588397  0.87707370  0.36227674  1
  O  O23  1  0.87707370  0.13118973  0.86227674  1
  V  V24  1  0.12654226  0.33293983  0.20834226  1
  V  V25  1  0.20639757  0.87345774  0.20834226  1
  V  V26  1  0.33293983  0.20639757  0.70834226  1
  V  V27  1  0.87345774  0.66706017  0.70834226  1
  V  V28  1  0.66706017  0.79360243  0.20834226  1
  V  V29  1  0.79360243  0.12654226  0.70834226  1
  Se  Se30  1  0.00000000  0.00000000  0.42346318  1
  Se  Se31  1  0.33333333  0.66666667  0.98994900  1
  Se  Se32  1  0.66666667  0.33333333  0.48994900  1
  Se  Se33  1  0.00000000  0.00000000  0.92346318  1
  Rb  Rb34  1  0.33333333  0.66666667  0.54151230  1
  Rb  Rb35  1  0.66666667  0.33333333  0.04151230  1
