# generated using pymatgen
data_CsSbClF3
_symmetry_space_group_name_H-M   'P 1'
_cell_length_a   9.26982433
_cell_length_b   9.26982433
_cell_length_c   9.26982433
_cell_angle_alpha   98.83877789
_cell_angle_beta   115.03505485
_cell_angle_gamma   115.03505481
_symmetry_Int_Tables_number   1
_chemical_formula_structural   CsSbClF3
_chemical_formula_sum   'Cs4 Sb4 Cl4 F12'
_cell_volume   597.79068004
_cell_formula_units_Z   4
loop_
 _symmetry_equiv_pos_site_id
 _symmetry_equiv_pos_as_xyz
  1  'x, y, z'
loop_
 _atom_site_type_symbol
 _atom_site_label
 _atom_site_symmetry_multiplicity
 _atom_site_fract_x
 _atom_site_fract_y
 _atom_site_fract_z
 _atom_site_occupancy
  F  F0  1  0.74765099  0.89286117  0.08788350  1
  F  F1  1  0.25234901  0.34023251  0.14521018  1
  F  F2  1  0.74765099  0.08788350  0.89286117  1
  F  F3  1  0.19502233  0.85478982  0.10713883  1
  F  F4  1  0.80497767  0.91211650  0.65976749  1
  F  F5  1  0.19502233  0.10713883  0.85478982  1
  F  F6  1  0.80497767  0.65976749  0.91211650  1
  F  F7  1  0.55656120  0.46520715  0.46520715  1
  F  F8  1  0.44343880  0.90864596  0.90864596  1
  F  F9  1  0.00000000  0.09135404  0.53479285  1
  F  F10  1  0.00000000  0.53479285  0.09135404  1
  F  F11  1  0.25234901  0.14521018  0.34023251  1
  Cl  Cl12  1  0.28996489  0.50000000  0.78996489  1
  Cl  Cl13  1  0.28996489  0.78996489  0.50000000  1
  Cl  Cl14  1  0.71003511  0.21003511  0.50000000  1
  Cl  Cl15  1  0.71003511  0.50000000  0.21003511  1
  Sb  Sb16  1  0.00000000  0.74564684  0.16649202  1
  Sb  Sb17  1  0.00000000  0.16649202  0.74564684  1
  Sb  Sb18  1  0.57915482  0.83350798  0.83350798  1
  Sb  Sb19  1  0.42084518  0.25435316  0.25435316  1
  Cs  Cs20  1  0.00000000  0.69588734  0.69588734  1
  Cs  Cs21  1  0.50000000  0.75000000  0.25000000  1
  Cs  Cs22  1  0.50000000  0.25000000  0.75000000  1
  Cs  Cs23  1  0.00000000  0.30411266  0.30411266  1
