# generated using pymatgen
data_BaH4O3
_symmetry_space_group_name_H-M   'P 1'
_cell_length_a   7.21609137
_cell_length_b   4.22436793
_cell_length_c   6.46479808
_cell_angle_alpha   90.00000000
_cell_angle_beta   110.22354070
_cell_angle_gamma   90.00000000
_symmetry_Int_Tables_number   1
_chemical_formula_structural   BaH4O3
_chemical_formula_sum   'Ba2 H8 O6'
_cell_volume   184.92008330
_cell_formula_units_Z   2
loop_
 _symmetry_equiv_pos_site_id
 _symmetry_equiv_pos_as_xyz
  1  'x, y, z'
loop_
 _atom_site_type_symbol
 _atom_site_label
 _atom_site_symmetry_multiplicity
 _atom_site_fract_x
 _atom_site_fract_y
 _atom_site_fract_z
 _atom_site_occupancy
  Ba  Ba0  1  0.28083816  0.25000000  0.14614666  1
  Ba  Ba1  1  0.71916184  0.75000000  0.85385334  1
  H  H2  1  0.05637950  0.75000000  0.34667056  1
  H  H3  1  0.94362050  0.25000000  0.65332944  1
  H  H4  1  0.16471907  0.75000000  0.77252291  1
  H  H5  1  0.83528093  0.25000000  0.22747709  1
  H  H6  1  0.66046213  0.56089190  0.31607589  1
  H  H7  1  0.66046213  0.93910810  0.31607589  1
  H  H8  1  0.33953787  0.43910810  0.68392411  1
  H  H9  1  0.33953787  0.06089190  0.68392411  1
  O  O10  1  0.61890147  0.75000000  0.38637925  1
  O  O11  1  0.38109853  0.25000000  0.61362075  1
  O  O12  1  0.06770123  0.75000000  0.20154445  1
  O  O13  1  0.93229877  0.25000000  0.79845555  1
  O  O14  1  0.30856406  0.75000000  0.82824052  1
  O  O15  1  0.69143594  0.25000000  0.17175948  1
