# generated using pymatgen
data_Li2VO3F
_symmetry_space_group_name_H-M   'P 1'
_cell_length_a   5.05047942
_cell_length_b   5.79558103
_cell_length_c   5.21350931
_cell_angle_alpha   91.05051467
_cell_angle_beta   111.69033995
_cell_angle_gamma   91.29623440
_symmetry_Int_Tables_number   1
_chemical_formula_structural   Li2VO3F
_chemical_formula_sum   'Li4 V2 O6 F2'
_cell_volume   141.70201311
_cell_formula_units_Z   2
loop_
 _symmetry_equiv_pos_site_id
 _symmetry_equiv_pos_as_xyz
  1  'x, y, z'
loop_
 _atom_site_type_symbol
 _atom_site_label
 _atom_site_symmetry_multiplicity
 _atom_site_fract_x
 _atom_site_fract_y
 _atom_site_fract_z
 _atom_site_occupancy
  Li  Li0  1  0.19371792  0.12536580  0.51821751  1
  Li  Li1  1  0.24336726  0.62500402  0.51625034  1
  Li  Li2  1  0.73062453  0.39370342  0.48012492  1
  Li  Li3  1  0.76449541  0.62143215  0.99482645  1
  V  V4  1  0.29953109  0.86455455  0.06835541  1
  V  V5  1  0.73028065  0.12736115  0.93237926  1
  O  O6  1  0.02728284  0.88917514  0.21235097  1
  O  O7  1  0.48228079  0.88547693  0.78123361  1
  O  O8  1  0.53030192  0.35148040  0.74964870  1
  O  O9  1  0.48577658  0.64171187  0.24535194  1
  O  O10  1  0.52578749  0.10549650  0.21353072  1
  O  O11  1  0.97682289  0.11188096  0.77670603  1
  F  F12  1  0.02562544  0.64210025  0.76251080  1
  F  F13  1  0.96882719  0.36203987  0.25314935  1
