# generated using pymatgen
data_HIO3
_symmetry_space_group_name_H-M   'P 1'
_cell_length_a   5.71643709
_cell_length_b   5.89039595
_cell_length_c   8.00415994
_cell_angle_alpha   90.00000000
_cell_angle_beta   90.00000000
_cell_angle_gamma   90.00000000
_symmetry_Int_Tables_number   1
_chemical_formula_structural   HIO3
_chemical_formula_sum   'H4 I4 O12'
_cell_volume   269.51669689
_cell_formula_units_Z   4
loop_
 _symmetry_equiv_pos_site_id
 _symmetry_equiv_pos_as_xyz
  1  'x, y, z'
loop_
 _atom_site_type_symbol
 _atom_site_label
 _atom_site_symmetry_multiplicity
 _atom_site_fract_x
 _atom_site_fract_y
 _atom_site_fract_z
 _atom_site_occupancy
  H  H0  1  0.26965023  0.67900521  0.64033014  1
  H  H1  1  0.76965023  0.82099479  0.35966986  1
  H  H2  1  0.73034977  0.17900521  0.85966986  1
  H  H3  1  0.23034977  0.32099479  0.14033014  1
  O  O4  1  0.93210538  0.02161373  0.25840262  1
  O  O5  1  0.43210538  0.47838627  0.74159738  1
  O  O6  1  0.06789462  0.52161373  0.24159738  1
  O  O7  1  0.56789462  0.97838627  0.75840262  1
  O  O8  1  0.32725047  0.19570177  0.08865556  1
  O  O9  1  0.82725047  0.30429823  0.91134444  1
  O  O10  1  0.67274953  0.69570177  0.41134444  1
  O  O11  1  0.17274953  0.80429823  0.58865556  1
  O  O12  1  0.08608403  0.83988509  0.95033806  1
  O  O13  1  0.58608403  0.66011491  0.04966194  1
  O  O14  1  0.91391597  0.33988509  0.54966194  1
  O  O15  1  0.41391597  0.16011491  0.45033806  1
  I  I16  1  0.30323090  0.09295409  0.65580655  1
  I  I17  1  0.80323090  0.40704591  0.34419345  1
  I  I18  1  0.69676910  0.59295409  0.84419345  1
  I  I19  1  0.19676910  0.90704591  0.15580655  1
