# generated using pymatgen
data_P4Se5
_symmetry_space_group_name_H-M   'P 1'
_cell_length_a   6.93958501
_cell_length_b   11.81349642
_cell_length_c   13.55793438
_cell_angle_alpha   90.00000000
_cell_angle_beta   90.00000000
_cell_angle_gamma   90.00000000
_symmetry_Int_Tables_number   1
_chemical_formula_structural   P4Se5
_chemical_formula_sum   'P16 Se20'
_cell_volume   1111.48980073
_cell_formula_units_Z   4
loop_
 _symmetry_equiv_pos_site_id
 _symmetry_equiv_pos_as_xyz
  1  'x, y, z'
loop_
 _atom_site_type_symbol
 _atom_site_label
 _atom_site_symmetry_multiplicity
 _atom_site_fract_x
 _atom_site_fract_y
 _atom_site_fract_z
 _atom_site_occupancy
  P  P0  1  0.48986116  0.47162946  0.93813918  1
  P  P1  1  0.51013884  0.97162946  0.06186082  1
  P  P2  1  0.01013884  0.47162946  0.43813918  1
  P  P3  1  0.98986116  0.97162946  0.56186082  1
  P  P4  1  0.79233057  0.52011957  0.88971232  1
  P  P5  1  0.20766943  0.02011957  0.11028768  1
  P  P6  1  0.70766943  0.52011957  0.38971232  1
  P  P7  1  0.29233057  0.02011957  0.61028768  1
  P  P8  1  0.40029259  0.65025193  0.90114109  1
  P  P9  1  0.59970741  0.15025193  0.09885891  1
  P  P10  1  0.09970741  0.65025193  0.40114109  1
  P  P11  1  0.90029259  0.15025193  0.59885891  1
  P  P12  1  0.46005011  0.48847651  0.68521034  1
  P  P13  1  0.53994989  0.98847651  0.31478966  1
  P  P14  1  0.03994989  0.48847651  0.18521034  1
  P  P15  1  0.96005011  0.98847651  0.81478966  1
  Se  Se16  1  0.36541136  0.37166110  0.81389455  1
  Se  Se17  1  0.63458864  0.87166110  0.18610545  1
  Se  Se18  1  0.13458864  0.37166110  0.31389455  1
  Se  Se19  1  0.86541136  0.87166110  0.68610545  1
  Se  Se20  1  0.78082406  0.50050480  0.72130520  1
  Se  Se21  1  0.21917594  0.00050480  0.27869480  1
  Se  Se22  1  0.71917594  0.50050480  0.22130520  1
  Se  Se23  1  0.28082406  0.00050480  0.77869480  1
  Se  Se24  1  0.32904405  0.65695341  0.73584571  1
  Se  Se25  1  0.67095595  0.15695341  0.26415429  1
  Se  Se26  1  0.17095595  0.65695341  0.23584571  1
  Se  Se27  1  0.82904405  0.15695341  0.76415429  1
  Se  Se28  1  0.71352102  0.70602421  0.92927343  1
  Se  Se29  1  0.28647898  0.20602421  0.07072657  1
  Se  Se30  1  0.78647898  0.70602421  0.42927343  1
  Se  Se31  1  0.21352102  0.20602421  0.57072657  1
  Se  Se32  1  0.18572384  0.73817900  0.98411082  1
  Se  Se33  1  0.81427616  0.23817900  0.01588918  1
  Se  Se34  1  0.31427616  0.73817900  0.48411082  1
  Se  Se35  1  0.68572384  0.23817900  0.51588918  1
