# generated using pymatgen
data_MgH12(I4O3)2
_symmetry_space_group_name_H-M   'P 1'
_cell_length_a   9.12699403
_cell_length_b   9.82638326
_cell_length_c   7.73119464
_cell_angle_alpha   114.30899789
_cell_angle_beta   102.97157187
_cell_angle_gamma   104.93025361
_symmetry_Int_Tables_number   1
_chemical_formula_structural   MgH12(I4O3)2
_chemical_formula_sum   'Mg1 H12 I8 O6'
_cell_volume   565.92220859
_cell_formula_units_Z   1
loop_
 _symmetry_equiv_pos_site_id
 _symmetry_equiv_pos_as_xyz
  1  'x, y, z'
loop_
 _atom_site_type_symbol
 _atom_site_label
 _atom_site_symmetry_multiplicity
 _atom_site_fract_x
 _atom_site_fract_y
 _atom_site_fract_z
 _atom_site_occupancy
  Mg  Mg0  1  0.00000000  0.00000000  0.00000000  1
  H  H1  1  0.69174422  0.76948027  0.86676061  1
  H  H2  1  0.30825578  0.23051973  0.13323939  1
  H  H3  1  0.81272882  0.68423006  0.89510493  1
  H  H4  1  0.18727118  0.31576994  0.10489507  1
  H  H5  1  0.76625814  0.13118596  0.98849132  1
  H  H6  1  0.23374186  0.86881404  0.01150868  1
  H  H7  1  0.76683611  0.05253405  0.76391551  1
  H  H8  1  0.23316389  0.94746595  0.23608449  1
  H  H9  1  0.10094800  0.96024611  0.67646786  1
  H  H10  1  0.89905200  0.03975389  0.32353214  1
  H  H11  1  0.94908420  0.79663989  0.59310933  1
  H  H12  1  0.05091580  0.20336011  0.40689067  1
  I  I13  1  0.35686732  0.73959873  0.70566868  1
  I  I14  1  0.64313268  0.26040127  0.29433132  1
  I  I15  1  0.36426115  0.43132531  0.69203502  1
  I  I16  1  0.63573885  0.56867469  0.30796498  1
  I  I17  1  0.37806031  0.12868385  0.66367150  1
  I  I18  1  0.62193969  0.87131615  0.33632850  1
  I  I19  1  0.89405164  0.42981720  0.79286017  1
  I  I20  1  0.10594836  0.57018280  0.20713983  1
  O  O21  1  0.80740355  0.78874448  0.91850383  1
  O  O22  1  0.19259645  0.21125552  0.08149617  1
  O  O23  1  0.82390155  0.08064131  0.90512464  1
  O  O24  1  0.17609845  0.91935869  0.09487536  1
  O  O25  1  0.01711707  0.90404549  0.71231647  1
  O  O26  1  0.98288293  0.09595451  0.28768353  1
