# generated using pymatgen
data_PHOF2
_symmetry_space_group_name_H-M   'P 1'
_cell_length_a   14.86730519
_cell_length_b   6.00662234
_cell_length_c   6.49445483
_cell_angle_alpha   90.00000000
_cell_angle_beta   90.00000000
_cell_angle_gamma   90.00000000
_symmetry_Int_Tables_number   1
_chemical_formula_structural   PHOF2
_chemical_formula_sum   'P8 H8 O8 F16'
_cell_volume   579.96967232
_cell_formula_units_Z   8
loop_
 _symmetry_equiv_pos_site_id
 _symmetry_equiv_pos_as_xyz
  1  'x, y, z'
loop_
 _atom_site_type_symbol
 _atom_site_label
 _atom_site_symmetry_multiplicity
 _atom_site_fract_x
 _atom_site_fract_y
 _atom_site_fract_z
 _atom_site_occupancy
  P  P0  1  0.64484858  0.54739308  0.31097838  1
  P  P1  1  0.14484858  0.95260692  0.68902162  1
  P  P2  1  0.35515142  0.04739308  0.18902162  1
  P  P3  1  0.85515142  0.45260692  0.81097838  1
  P  P4  1  0.35515142  0.45260692  0.68902162  1
  P  P5  1  0.85515142  0.04739308  0.31097838  1
  P  P6  1  0.64484858  0.95260692  0.81097838  1
  P  P7  1  0.14484858  0.54739308  0.18902162  1
  H  H8  1  0.67610194  0.41533116  0.14914076  1
  H  H9  1  0.17610194  0.08466884  0.85085924  1
  H  H10  1  0.32389806  0.91533116  0.35085924  1
  H  H11  1  0.82389806  0.58466884  0.64914076  1
  H  H12  1  0.32389806  0.58466884  0.85085924  1
  H  H13  1  0.82389806  0.91533116  0.14914076  1
  H  H14  1  0.67610194  0.08466884  0.64914076  1
  H  H15  1  0.17610194  0.41533116  0.35085924  1
  O  O16  1  0.70605943  0.70801640  0.40817264  1
  O  O17  1  0.20605943  0.79198360  0.59182736  1
  O  O18  1  0.29394057  0.20801640  0.09182736  1
  O  O19  1  0.79394057  0.29198360  0.90817264  1
  O  O20  1  0.29394057  0.29198360  0.59182736  1
  O  O21  1  0.79394057  0.20801640  0.40817264  1
  O  O22  1  0.70605943  0.79198360  0.90817264  1
  O  O23  1  0.20605943  0.70801640  0.09182736  1
  F  F24  1  0.60080589  0.37828033  0.46571259  1
  F  F25  1  0.10080589  0.12171967  0.53428741  1
  F  F26  1  0.39919411  0.87828033  0.03428741  1
  F  F27  1  0.89919411  0.62171967  0.96571259  1
  F  F28  1  0.39919411  0.62171967  0.53428741  1
  F  F29  1  0.89919411  0.87828033  0.46571259  1
  F  F30  1  0.60080589  0.12171967  0.96571259  1
  F  F31  1  0.10080589  0.37828033  0.03428741  1
  F  F32  1  0.55628543  0.65439601  0.22446808  1
  F  F33  1  0.05628543  0.84560399  0.77553192  1
  F  F34  1  0.44371457  0.15439601  0.27553192  1
  F  F35  1  0.94371457  0.34560399  0.72446808  1
  F  F36  1  0.44371457  0.34560399  0.77553192  1
  F  F37  1  0.94371457  0.15439601  0.22446808  1
  F  F38  1  0.55628543  0.84560399  0.72446808  1
  F  F39  1  0.05628543  0.65439601  0.27553192  1
