# generated using pymatgen
data_K4PH5S3O16
_symmetry_space_group_name_H-M   'P 1'
_cell_length_a   7.38736541
_cell_length_b   7.61810380
_cell_length_c   7.64466074
_cell_angle_alpha   70.78580193
_cell_angle_beta   87.85494129
_cell_angle_gamma   85.52811362
_symmetry_Int_Tables_number   1
_chemical_formula_structural   K4PH5S3O16
_chemical_formula_sum   'K4 P1 H5 S3 O16'
_cell_volume   404.98993209
_cell_formula_units_Z   1
loop_
 _symmetry_equiv_pos_site_id
 _symmetry_equiv_pos_as_xyz
  1  'x, y, z'
loop_
 _atom_site_type_symbol
 _atom_site_label
 _atom_site_symmetry_multiplicity
 _atom_site_fract_x
 _atom_site_fract_y
 _atom_site_fract_z
 _atom_site_occupancy
  K  K0  1  0.16190876  0.18663364  0.33622228  1
  K  K1  1  0.46542335  0.25663125  0.77658233  1
  K  K2  1  0.53725951  0.74305560  0.22369653  1
  K  K3  1  0.83841444  0.80931622  0.66380345  1
  P  P4  1  0.95985987  0.27709611  0.80930816  1
  H  H5  1  0.00997744  0.47348579  0.52456765  1
  H  H6  1  0.12087833  0.05495196  0.04462533  1
  H  H7  1  0.25084733  0.58092884  0.96608743  1
  H  H8  1  0.75002785  0.42055589  0.03067866  1
  H  H9  1  0.86869569  0.98940949  0.91564438  1
  S  S10  1  0.03554734  0.72354028  0.19786126  1
  S  S11  1  0.37324172  0.77978410  0.72313162  1
  S  S12  1  0.62702764  0.22128717  0.27561451  1
  O  O13  1  0.05927830  0.34655847  0.61576003  1
  O  O14  1  0.11595095  0.19445528  0.95243486  1
  O  O15  1  0.15504193  0.56912785  0.16900672  1
  O  O16  1  0.14930892  0.88150073  0.18965385  1
  O  O17  1  0.20569101  0.89681465  0.65957238  1
  O  O18  1  0.31367508  0.57741063  0.84676063  1
  O  O19  1  0.51911279  0.14969807  0.15821203  1
  O  O20  1  0.48230178  0.73772115  0.57641015  1
  O  O21  1  0.51732392  0.26270987  0.42337154  1
  O  O22  1  0.48060873  0.84935013  0.84228870  1
  O  O23  1  0.68529474  0.42183774  0.15219110  1
  O  O24  1  0.79415619  0.10389336  0.34025748  1
  O  O25  1  0.84437940  0.11157306  0.80702043  1
  O  O26  1  0.84078789  0.43203682  0.84429957  1
  O  O27  1  0.89408351  0.79209862  0.05155408  1
  O  O28  1  0.94389561  0.65653726  0.38338283  1
