# generated using pymatgen
data_CsB3H8
_symmetry_space_group_name_H-M   'P 1'
_cell_length_a   5.75552683
_cell_length_b   5.75552683
_cell_length_c   9.12136655
_cell_angle_alpha   90.00000000
_cell_angle_beta   90.00000000
_cell_angle_gamma   98.76869365
_symmetry_Int_Tables_number   1
_chemical_formula_structural   CsB3H8
_chemical_formula_sum   'Cs2 B6 H16'
_cell_volume   298.62355821
_cell_formula_units_Z   2
loop_
 _symmetry_equiv_pos_site_id
 _symmetry_equiv_pos_as_xyz
  1  'x, y, z'
loop_
 _atom_site_type_symbol
 _atom_site_label
 _atom_site_symmetry_multiplicity
 _atom_site_fract_x
 _atom_site_fract_y
 _atom_site_fract_z
 _atom_site_occupancy
  H  H0  1  0.35513756  0.64546795  0.40578693  1
  H  H1  1  0.64546795  0.35513756  0.59421307  1
  H  H2  1  0.35513756  0.64546795  0.09421307  1
  H  H3  1  0.64546795  0.35513756  0.90578693  1
  H  H4  1  0.60791621  0.66314365  0.25000000  1
  H  H5  1  0.66314365  0.60791621  0.75000000  1
  H  H6  1  0.33952109  0.39078319  0.25000000  1
  H  H7  1  0.39078319  0.33952109  0.75000000  1
  H  H8  1  0.96881168  0.29585374  0.89444653  1
  H  H9  1  0.29585374  0.96881168  0.10555347  1
  H  H10  1  0.96881168  0.29585374  0.60555347  1
  H  H11  1  0.29585374  0.96881168  0.39444653  1
  H  H12  1  0.68976612  0.02669609  0.89517454  1
  H  H13  1  0.02669609  0.68976612  0.10482546  1
  H  H14  1  0.68976612  0.02669609  0.60482546  1
  H  H15  1  0.02669609  0.68976612  0.39517454  1
  B  B16  1  0.39701606  0.60222964  0.25000000  1
  B  B17  1  0.60222964  0.39701606  0.75000000  1
  B  B18  1  0.21882003  0.77407596  0.15125748  1
  B  B19  1  0.77407596  0.21882003  0.84874252  1
  B  B20  1  0.21882003  0.77407596  0.34874252  1
  B  B21  1  0.77407596  0.21882003  0.65125748  1
  Cs  Cs22  1  0.82214398  0.17798794  0.25000000  1
  Cs  Cs23  1  0.17798794  0.82214398  0.75000000  1
