# generated using pymatgen
data_LiCo(WO4)2
_symmetry_space_group_name_H-M   'P 1'
_cell_length_a   4.98269886
_cell_length_b   5.60857490
_cell_length_c   5.86892957
_cell_angle_alpha   69.90237744
_cell_angle_beta   90.82828545
_cell_angle_gamma   114.31935812
_symmetry_Int_Tables_number   1
_chemical_formula_structural   LiCo(WO4)2
_chemical_formula_sum   'Li1 Co1 W2 O8'
_cell_volume   138.80212506
_cell_formula_units_Z   1
loop_
 _symmetry_equiv_pos_site_id
 _symmetry_equiv_pos_as_xyz
  1  'x, y, z'
loop_
 _atom_site_type_symbol
 _atom_site_label
 _atom_site_symmetry_multiplicity
 _atom_site_fract_x
 _atom_site_fract_y
 _atom_site_fract_z
 _atom_site_occupancy
  Li  Li0  1  0.96341748  0.93891295  0.71256567  1
  O  O1  1  0.28787417  0.22195151  0.92386101  1
  O  O2  1  0.17629170  0.71490338  0.32958517  1
  O  O3  1  0.23825230  0.74752528  0.81851309  1
  O  O4  1  0.67616781  0.71622873  0.54902419  1
  O  O5  1  0.32894257  0.28491241  0.46283663  1
  O  O6  1  0.74438615  0.25365552  0.18475868  1
  O  O7  1  0.70680037  0.77263477  0.06839390  1
  O  O8  1  0.83147386  0.27634368  0.67235472  1
  Co  Co9  1  0.49448907  0.99572987  0.01698677  1
  W  W10  1  0.26832825  0.52351828  0.66734541  1
  W  W11  1  0.73237627  0.47948363  0.33657476  1
