# generated using pymatgen
data_SiO2
_symmetry_space_group_name_H-M   'P 1'
_cell_length_a   5.03895105
_cell_length_b   5.51942805
_cell_length_c   6.23271407
_cell_angle_alpha   90.70493521
_cell_angle_beta   90.16490176
_cell_angle_gamma   89.39180993
_symmetry_Int_Tables_number   1
_chemical_formula_structural   SiO2
_chemical_formula_sum   'Si4 O8'
_cell_volume   173.32150055
_cell_formula_units_Z   4
loop_
 _symmetry_equiv_pos_site_id
 _symmetry_equiv_pos_as_xyz
  1  'x, y, z'
loop_
 _atom_site_type_symbol
 _atom_site_label
 _atom_site_symmetry_multiplicity
 _atom_site_fract_x
 _atom_site_fract_y
 _atom_site_fract_z
 _atom_site_occupancy
  Si  Si0  1  0.48663805  0.73494397  0.11705428  1
  Si  Si1  1  0.20854005  0.24225811  0.11515271  1
  Si  Si2  1  0.84933352  0.49305247  0.82539052  1
  Si  Si3  1  0.34816805  0.49296569  0.52742327  1
  O  O4  1  0.77184633  0.72238252  0.98950063  1
  O  O5  1  0.60741433  0.40640820  0.66596120  1
  O  O6  1  0.92533680  0.26408168  0.98528324  1
  O  O7  1  0.35676119  0.48332065  0.03124714  1
  O  O8  1  0.46282958  0.71506508  0.37878954  1
  O  O9  1  0.22751987  0.27042984  0.37727738  1
  O  O10  1  0.34188739  0.98495702  0.04522284  1
  O  O11  1  0.09504485  0.58084478  0.67311726  1
