# generated using pymatgen
data_LiV(TeO4)3
_symmetry_space_group_name_H-M   'P 1'
_cell_length_a   5.20085420
_cell_length_b   4.92522754
_cell_length_c   8.42188297
_cell_angle_alpha   90.00000000
_cell_angle_beta   90.00000000
_cell_angle_gamma   92.58121140
_symmetry_Int_Tables_number   1
_chemical_formula_structural   LiV(TeO4)3
_chemical_formula_sum   'Li1 V1 Te3 O12'
_cell_volume   215.51093853
_cell_formula_units_Z   1
loop_
 _symmetry_equiv_pos_site_id
 _symmetry_equiv_pos_as_xyz
  1  'x, y, z'
loop_
 _atom_site_type_symbol
 _atom_site_label
 _atom_site_symmetry_multiplicity
 _atom_site_fract_x
 _atom_site_fract_y
 _atom_site_fract_z
 _atom_site_occupancy
  Li  Li0  1  0.50000000  0.50000000  0.19296928  1
  V  V1  1  0.00000000  0.00000000  0.09726950  1
  Te  Te2  1  0.00000000  0.50000000  0.41264099  1
  Te  Te3  1  0.50000000  0.50000000  0.60251954  1
  Te  Te4  1  0.50000000  0.00000000  0.91828712  1
  O  O5  1  0.11886501  0.25760708  0.25089920  1
  O  O6  1  0.17546203  0.28669986  0.57972932  1
  O  O7  1  0.19057404  0.19835382  0.94071256  1
  O  O8  1  0.33148273  0.70553280  0.42607150  1
  O  O9  1  0.30692417  0.78754999  0.08018289  1
  O  O10  1  0.36098517  0.74698760  0.75538632  1
  O  O11  1  0.63901483  0.25301240  0.75538632  1
  O  O12  1  0.69307583  0.21245001  0.08018289  1
  O  O13  1  0.66851727  0.29446720  0.42607150  1
  O  O14  1  0.80942596  0.80164618  0.94071256  1
  O  O15  1  0.82453797  0.71330014  0.57972932  1
  O  O16  1  0.88113499  0.74239292  0.25089920  1
