# generated using pymatgen
data_PH3O4
_symmetry_space_group_name_H-M   'P 1'
_cell_length_a   5.81023673
_cell_length_b   5.19689837
_cell_length_c   10.85223454
_cell_angle_alpha   90.00000000
_cell_angle_beta   94.55532002
_cell_angle_gamma   90.00000000
_symmetry_Int_Tables_number   1
_chemical_formula_structural   PH3O4
_chemical_formula_sum   'P4 H12 O16'
_cell_volume   326.65037773
_cell_formula_units_Z   4
loop_
 _symmetry_equiv_pos_site_id
 _symmetry_equiv_pos_as_xyz
  1  'x, y, z'
loop_
 _atom_site_type_symbol
 _atom_site_label
 _atom_site_symmetry_multiplicity
 _atom_site_fract_x
 _atom_site_fract_y
 _atom_site_fract_z
 _atom_site_occupancy
  P  P0  1  0.20791296  0.19643824  0.65756530  1
  P  P1  1  0.79208704  0.69643824  0.84243470  1
  P  P2  1  0.79208704  0.80356176  0.34243470  1
  P  P3  1  0.20791296  0.30356176  0.15756530  1
  H  H4  1  0.25532469  0.35388124  0.46987070  1
  H  H5  1  0.74467531  0.85388124  0.03012930  1
  H  H6  1  0.74467531  0.64611876  0.53012930  1
  H  H7  1  0.25532469  0.14611876  0.96987070  1
  H  H8  1  0.84857625  0.05977457  0.66750454  1
  H  H9  1  0.15142375  0.55977457  0.83249546  1
  H  H10  1  0.15142375  0.94022543  0.33249546  1
  H  H11  1  0.84857625  0.44022543  0.16750454  1
  H  H12  1  0.44492325  0.86087120  0.67353264  1
  H  H13  1  0.55507675  0.36087120  0.82646736  1
  H  H14  1  0.55507675  0.13912880  0.32646736  1
  H  H15  1  0.44492325  0.63912880  0.17353264  1
  O  O16  1  0.30947905  0.37295158  0.55709439  1
  O  O17  1  0.69052095  0.87295158  0.94290561  1
  O  O18  1  0.69052095  0.62704842  0.44290561  1
  O  O19  1  0.30947905  0.12704842  0.05709439  1
  O  O20  1  0.93967847  0.20316067  0.63012042  1
  O  O21  1  0.06032153  0.70316067  0.86987958  1
  O  O22  1  0.06032153  0.79683933  0.36987958  1
  O  O23  1  0.93967847  0.29683933  0.13012042  1
  O  O24  1  0.29092184  0.31052555  0.78241969  1
  O  O25  1  0.70907816  0.81052555  0.71758031  1
  O  O26  1  0.70907816  0.68947445  0.21758031  1
  O  O27  1  0.29092184  0.18947445  0.28241969  1
  O  O28  1  0.28096363  0.91001808  0.64186534  1
  O  O29  1  0.71903637  0.41001808  0.85813466  1
  O  O30  1  0.71903637  0.08998192  0.35813466  1
  O  O31  1  0.28096363  0.58998192  0.14186534  1
