# generated using pymatgen
data_NaYF4
_symmetry_space_group_name_H-M   'P 1'
_cell_length_a   6.07122213
_cell_length_b   6.07122239
_cell_length_c   7.10515987
_cell_angle_alpha   90.00000000
_cell_angle_beta   90.00000000
_cell_angle_gamma   120.00000411
_symmetry_Int_Tables_number   1
_chemical_formula_structural   NaYF4
_chemical_formula_sum   'Na3 Y3 F12'
_cell_volume   226.80714506
_cell_formula_units_Z   3
loop_
 _symmetry_equiv_pos_site_id
 _symmetry_equiv_pos_as_xyz
  1  'x, y, z'
loop_
 _atom_site_type_symbol
 _atom_site_label
 _atom_site_symmetry_multiplicity
 _atom_site_fract_x
 _atom_site_fract_y
 _atom_site_fract_z
 _atom_site_occupancy
  Na  Na0  1  0.33333300  0.66666700  0.53771068  1
  Na  Na1  1  0.33333300  0.66666700  0.96228932  1
  Na  Na2  1  0.66666700  0.33333300  0.75000000  1
  Y  Y3  1  0.00000000  0.00000000  0.99662157  1
  Y  Y4  1  0.00000000  0.00000000  0.50337843  1
  Y  Y5  1  0.66666700  0.33333300  0.25000000  1
  F  F6  1  0.24543492  0.97266775  0.25000000  1
  F  F7  1  0.22526896  0.94271863  0.75000000  1
  F  F8  1  0.02733225  0.27276717  0.25000000  1
  F  F9  1  0.05728137  0.28255033  0.75000000  1
  F  F10  1  0.40667860  0.34222462  0.01442574  1
  F  F11  1  0.40667860  0.34222462  0.48557426  1
  F  F12  1  0.71744967  0.77473104  0.75000000  1
  F  F13  1  0.72723283  0.75456508  0.25000000  1
  F  F14  1  0.65777538  0.06445497  0.01442574  1
  F  F15  1  0.65777538  0.06445497  0.48557426  1
  F  F16  1  0.93554503  0.59332140  0.01442574  1
  F  F17  1  0.93554503  0.59332140  0.48557426  1
