# generated using pymatgen
data_Ag3PS4
_symmetry_space_group_name_H-M   'P 1'
_cell_length_a   6.61614015
_cell_length_b   6.91924072
_cell_length_c   7.75803385
_cell_angle_alpha   90.00000000
_cell_angle_beta   90.00000000
_cell_angle_gamma   90.00000000
_symmetry_Int_Tables_number   1
_chemical_formula_structural   Ag3PS4
_chemical_formula_sum   'Ag6 P2 S8'
_cell_volume   355.15244304
_cell_formula_units_Z   2
loop_
 _symmetry_equiv_pos_site_id
 _symmetry_equiv_pos_as_xyz
  1  'x, y, z'
loop_
 _atom_site_type_symbol
 _atom_site_label
 _atom_site_symmetry_multiplicity
 _atom_site_fract_x
 _atom_site_fract_y
 _atom_site_fract_z
 _atom_site_occupancy
  P  P0  1  0.40416153  0.68767294  0.00000000  1
  P  P1  1  0.90416153  0.31232706  0.50000000  1
  S  S2  1  0.30378489  0.83289886  0.21992899  1
  S  S3  1  0.80378489  0.16710114  0.28007101  1
  S  S4  1  0.78362159  0.58925179  0.50000000  1
  S  S5  1  0.28362159  0.41074821  0.00000000  1
  S  S6  1  0.80378489  0.16710114  0.71992899  1
  S  S7  1  0.30378489  0.83289886  0.78007101  1
  S  S8  1  0.71610155  0.69068886  0.00000000  1
  S  S9  1  0.21610155  0.30931114  0.50000000  1
  Ag  Ag10  1  0.92449376  0.80991711  0.73481251  1
  Ag  Ag11  1  0.42449376  0.19008289  0.76518749  1
  Ag  Ag12  1  0.42449376  0.19008289  0.23481251  1
  Ag  Ag13  1  0.92449376  0.80991711  0.26518749  1
  Ag  Ag14  1  0.39245803  0.64060735  0.50000000  1
  Ag  Ag15  1  0.89245803  0.35939265  0.00000000  1
