# generated using pymatgen
data_Li2CuPO4
_symmetry_space_group_name_H-M   'P 1'
_cell_length_a   6.17562329
_cell_length_b   5.41768079
_cell_length_c   5.05725355
_cell_angle_alpha   90.00000000
_cell_angle_beta   89.99979573
_cell_angle_gamma   90.00000000
_symmetry_Int_Tables_number   1
_chemical_formula_structural   Li2CuPO4
_chemical_formula_sum   'Li4 Cu2 P2 O8'
_cell_volume   169.20334215
_cell_formula_units_Z   2
loop_
 _symmetry_equiv_pos_site_id
 _symmetry_equiv_pos_as_xyz
  1  'x, y, z'
loop_
 _atom_site_type_symbol
 _atom_site_label
 _atom_site_symmetry_multiplicity
 _atom_site_fract_x
 _atom_site_fract_y
 _atom_site_fract_z
 _atom_site_occupancy
  Li  Li0  1  0.74701733  0.32861417  0.50023318  1
  Li  Li1  1  0.49989998  0.15203072  0.00115726  1
  Li  Li2  1  -0.00010002  0.84796928  0.50115726  1
  Li  Li3  1  0.24701733  0.67138583  0.00023318  1
  O  O4  1  0.79138198  0.29664228  0.89089389  1
  O  O5  1  0.29138198  0.70335772  0.39089389  1
  O  O6  1  0.70752080  0.68567132  0.41571493  1
  O  O7  1  0.20752080  0.31432868  0.91571493  1
  O  O8  1  0.01012568  0.90124294  0.89640677  1
  O  O9  1  0.49025555  0.83006135  0.81215581  1
  O  O10  1  0.51012568  0.09875706  0.39640677  1
  O  O11  1  0.99025555  0.16993865  0.31215581  1
  P  P12  1  -0.00007899  0.17053078  0.00464742  1
  P  P13  1  0.49992101  0.82946922  0.50464742  1
  Cu  Cu14  1  0.75517768  0.65604463  0.00889072  1
  Cu  Cu15  1  0.25517768  0.34395537  0.50889072  1
