# generated using pymatgen
data_Na8Al6Si6SO28
_symmetry_space_group_name_H-M   'P 1'
_cell_length_a   9.15993068
_cell_length_b   9.15993068
_cell_length_c   9.15993068
_cell_angle_alpha   90.00000000
_cell_angle_beta   90.00000000
_cell_angle_gamma   90.00000000
_symmetry_Int_Tables_number   1
_chemical_formula_structural   Na8Al6Si6SO28
_chemical_formula_sum   'Na8 Al6 Si6 S1 O28'
_cell_volume   768.55784712
_cell_formula_units_Z   1
loop_
 _symmetry_equiv_pos_site_id
 _symmetry_equiv_pos_as_xyz
  1  'x, y, z'
loop_
 _atom_site_type_symbol
 _atom_site_label
 _atom_site_symmetry_multiplicity
 _atom_site_fract_x
 _atom_site_fract_y
 _atom_site_fract_z
 _atom_site_occupancy
  Al  Al0  1  0.00000000  0.25046992  0.50000000  1
  Al  Al1  1  0.00000000  0.74953008  0.50000000  1
  Al  Al2  1  0.25046992  0.50000000  0.00000000  1
  Al  Al3  1  0.50000000  0.00000000  0.74953008  1
  Al  Al4  1  0.50000000  0.00000000  0.25046992  1
  Al  Al5  1  0.74953008  0.50000000  0.00000000  1
  Na  Na6  1  0.19403320  0.19403320  0.19403320  1
  Na  Na7  1  0.19403320  0.80596680  0.80596680  1
  Na  Na8  1  0.24279731  0.24279731  0.75720269  1
  Na  Na9  1  0.24279731  0.75720269  0.24279731  1
  Na  Na10  1  0.75720269  0.24279731  0.24279731  1
  Na  Na11  1  0.75720269  0.75720269  0.75720269  1
  Na  Na12  1  0.80596680  0.19403320  0.80596680  1
  Na  Na13  1  0.80596680  0.80596680  0.19403320  1
  O  O14  1  0.04457927  0.35716024  0.65270780  1
  O  O15  1  0.04457927  0.64283976  0.34729220  1
  O  O16  1  0.09395096  0.09395096  0.90604904  1
  O  O17  1  0.09395096  0.90604904  0.09395096  1
  O  O18  1  0.15175381  0.14249590  0.45355536  1
  O  O19  1  0.14249590  0.45355536  0.15175381  1
  O  O20  1  0.14249590  0.54644464  0.84824619  1
  O  O21  1  0.15175381  0.85750410  0.54644464  1
  O  O22  1  0.34729220  0.04457927  0.64283976  1
  O  O23  1  0.35716024  0.34729220  0.95542073  1
  O  O24  1  0.35716024  0.65270780  0.04457927  1
  O  O25  1  0.34729220  0.95542073  0.35716024  1
  O  O26  1  0.45355536  0.15175381  0.14249590  1
  O  O27  1  0.45355536  0.84824619  0.85750410  1
  O  O28  1  0.54644464  0.15175381  0.85750410  1
  O  O29  1  0.54644464  0.84824619  0.14249590  1
  O  O30  1  0.65270780  0.04457927  0.35716024  1
  O  O31  1  0.64283976  0.34729220  0.04457927  1
  O  O32  1  0.64283976  0.65270780  0.95542073  1
  O  O33  1  0.65270780  0.95542073  0.64283976  1
  O  O34  1  0.84824619  0.14249590  0.54644464  1
  O  O35  1  0.85750410  0.45355536  0.84824619  1
  O  O36  1  0.85750410  0.54644464  0.15175381  1
  O  O37  1  0.84824619  0.85750410  0.45355536  1
  O  O38  1  0.90604904  0.09395096  0.09395096  1
  O  O39  1  0.90604904  0.90604904  0.90604904  1
  O  O40  1  0.95542073  0.35716024  0.34729220  1
  O  O41  1  0.95542073  0.64283976  0.65270780  1
  S  S42  1  0.00000000  0.00000000  0.00000000  1
  Si  Si43  1  0.00000000  0.50000000  0.24950182  1
  Si  Si44  1  0.00000000  0.50000000  0.75049818  1
  Si  Si45  1  0.24950182  0.00000000  0.50000000  1
  Si  Si46  1  0.50000000  0.75049818  0.00000000  1
  Si  Si47  1  0.50000000  0.24950182  0.00000000  1
  Si  Si48  1  0.75049818  0.00000000  0.50000000  1
