# generated using pymatgen
data_Li5Cu(PO4)2
_symmetry_space_group_name_H-M   'P 1'
_cell_length_a   6.21696355
_cell_length_b   5.30782570
_cell_length_c   4.97488564
_cell_angle_alpha   90.35058291
_cell_angle_beta   90.00000000
_cell_angle_gamma   90.00000000
_symmetry_Int_Tables_number   1
_chemical_formula_structural   Li5Cu(PO4)2
_chemical_formula_sum   'Li5 Cu1 P2 O8'
_cell_volume   164.16098366
_cell_formula_units_Z   1
loop_
 _symmetry_equiv_pos_site_id
 _symmetry_equiv_pos_as_xyz
  1  'x, y, z'
loop_
 _atom_site_type_symbol
 _atom_site_label
 _atom_site_symmetry_multiplicity
 _atom_site_fract_x
 _atom_site_fract_y
 _atom_site_fract_z
 _atom_site_occupancy
  Li  Li0  1  0.00000000  0.15559488  0.49067155  1
  Li  Li1  1  0.24901209  0.32656753  0.99204069  1
  Li  Li2  1  0.25386358  0.67344127  0.49057300  1
  Li  Li3  1  0.74613642  0.67344127  0.49057300  1
  Li  Li4  1  0.75098791  0.32656753  0.99204069  1
  Cu  Cu5  1  0.50000000  0.82789258  0.99357315  1
  P  P6  1  0.00000000  0.82576348  0.99975156  1
  P  P7  1  0.50000000  0.18141715  0.49862936  1
  O  O8  1  0.00000000  0.10313857  0.89887803  1
  O  O9  1  0.00000000  0.81947771  0.31220741  1
  O  O10  1  0.20159297  0.68199124  0.88929021  1
  O  O11  1  0.29300516  0.31304799  0.39030348  1
  O  O12  1  0.50000000  0.19922216  0.81103258  1
  O  O13  1  0.50000000  0.89739843  0.41343561  1
  O  O14  1  0.70699484  0.31304799  0.39030348  1
  O  O15  1  0.79840703  0.68199124  0.88929021  1
