# generated using pymatgen
data_Ca2CoSi2O7
_symmetry_space_group_name_H-M   'P 1'
_cell_length_a   5.06340546
_cell_length_b   7.90945836
_cell_length_c   7.90945836
_cell_angle_alpha   90.00000000
_cell_angle_beta   90.00000000
_cell_angle_gamma   90.00000000
_symmetry_Int_Tables_number   1
_chemical_formula_structural   Ca2CoSi2O7
_chemical_formula_sum   'Ca4 Co2 Si4 O14'
_cell_volume   316.76427362
_cell_formula_units_Z   2
loop_
 _symmetry_equiv_pos_site_id
 _symmetry_equiv_pos_as_xyz
  1  'x, y, z'
loop_
 _atom_site_type_symbol
 _atom_site_label
 _atom_site_symmetry_multiplicity
 _atom_site_fract_x
 _atom_site_fract_y
 _atom_site_fract_z
 _atom_site_occupancy
  O  O0  1  0.77748875  0.68595461  0.58226843  1
  O  O1  1  0.77748875  0.31404575  0.41773193  1
  O  O2  1  0.22251087  0.41773193  0.68595461  1
  O  O3  1  0.22251087  0.58226843  0.31404575  1
  O  O4  1  0.77748875  0.91773148  0.81404530  1
  O  O5  1  0.22251087  0.81404530  0.08226888  1
  O  O6  1  0.22251087  0.18595379  0.91773148  1
  O  O7  1  0.77748875  0.08226888  0.18595379  1
  O  O8  1  0.25075845  0.85691272  0.64308845  1
  O  O9  1  0.74924314  0.64308845  0.14308764  1
  O  O10  1  0.18398170  0.49999955  0.00000000  1
  O  O11  1  0.81601791  0.00000000  0.49999955  1
  O  O12  1  0.74924314  0.35691191  0.85691272  1
  O  O13  1  0.25075845  0.14308764  0.35691191  1
  Si  Si14  1  0.93216556  0.85913994  0.64085996  1
  Si  Si15  1  0.06783406  0.64085996  0.14085915  1
  Si  Si16  1  0.06783406  0.35914039  0.85913994  1
  Si  Si17  1  0.93216556  0.14085915  0.35914039  1
  Ca  Ca18  1  0.49942225  0.17007734  0.67007815  1
  Ca  Ca19  1  0.49942225  0.82992175  0.32992221  1
  Ca  Ca20  1  0.50057736  0.67007815  0.82992175  1
  Ca  Ca21  1  0.50057736  0.32992221  0.17007734  1
  Co  Co22  1  0.00000000  0.49999955  0.49999955  1
  Co  Co23  1  0.00000000  0.00000000  0.00000000  1
