# generated using pymatgen
data_VFe(P2O7)2
_symmetry_space_group_name_H-M   'P 1'
_cell_length_a   4.86192437
_cell_length_b   8.01126186
_cell_length_c   7.01455472
_cell_angle_alpha   90.52010317
_cell_angle_beta   107.78102767
_cell_angle_gamma   89.38229151
_symmetry_Int_Tables_number   1
_chemical_formula_structural   VFe(P2O7)2
_chemical_formula_sum   'V1 Fe1 P4 O14'
_cell_volume   260.14656517
_cell_formula_units_Z   1
loop_
 _symmetry_equiv_pos_site_id
 _symmetry_equiv_pos_as_xyz
  1  'x, y, z'
loop_
 _atom_site_type_symbol
 _atom_site_label
 _atom_site_symmetry_multiplicity
 _atom_site_fract_x
 _atom_site_fract_y
 _atom_site_fract_z
 _atom_site_occupancy
  V  V0  1  0.20975157  0.50544520  0.72042981  1
  Fe  Fe1  1  0.78728190  0.00805258  0.27226634  1
  P  P2  1  0.40227830  0.17499651  0.52281320  1
  P  P3  1  0.22408070  0.77893430  0.08959578  1
  P  P4  1  0.78046733  0.28161479  0.91106498  1
  P  P5  1  0.59998605  0.68367306  0.47735536  1
  O  O6  1  0.04048283  0.34041400  0.84874972  1
  O  O7  1  0.15973484  0.66979295  0.89523184  1
  O  O8  1  0.17350755  0.04289857  0.47798411  1
  O  O9  1  0.26344456  0.35102461  0.53820755  1
  O  O10  1  0.39388266  0.66849997  0.60711292  1
  O  O11  1  0.57166227  0.43342384  0.89954693  1
  O  O12  1  0.60728319  0.14581132  0.75073270  1
  O  O13  1  0.40919087  0.64220384  0.25220173  1
  O  O14  1  0.40952917  0.92800341  0.08347556  1
  O  O15  1  0.58948434  0.18644644  0.38704220  1
  O  O16  1  0.72419868  0.85574405  0.48668478  1
  O  O17  1  0.83496565  0.54573442  0.53445808  1
  O  O18  1  0.87222496  0.19568441  0.10979821  1
  O  O19  1  0.94661158  0.81983772  0.13510022  1
