# generated using pymatgen
data_Rb3SbO3
_symmetry_space_group_name_H-M   'P 1'
_cell_length_a   8.86215294
_cell_length_b   8.86215294
_cell_length_c   8.86215294
_cell_angle_alpha   90.00000000
_cell_angle_beta   90.00000000
_cell_angle_gamma   90.00000000
_symmetry_Int_Tables_number   1
_chemical_formula_structural   Rb3SbO3
_chemical_formula_sum   'Rb12 Sb4 O12'
_cell_volume   696.01359400
_cell_formula_units_Z   4
loop_
 _symmetry_equiv_pos_site_id
 _symmetry_equiv_pos_as_xyz
  1  'x, y, z'
loop_
 _atom_site_type_symbol
 _atom_site_label
 _atom_site_symmetry_multiplicity
 _atom_site_fract_x
 _atom_site_fract_y
 _atom_site_fract_z
 _atom_site_occupancy
  Rb  Rb0  1  0.02488363  0.02488363  0.02488363  1
  Rb  Rb1  1  0.21230942  0.28769058  0.71230942  1
  Rb  Rb2  1  0.21805171  0.71805171  0.78194829  1
  Rb  Rb3  1  0.28194829  0.28194829  0.28194829  1
  Rb  Rb4  1  0.28769058  0.71230942  0.21230942  1
  Rb  Rb5  1  0.47511637  0.97511637  0.52488363  1
  Rb  Rb6  1  0.52488363  0.47511637  0.97511637  1
  Rb  Rb7  1  0.71230942  0.21230942  0.28769058  1
  Rb  Rb8  1  0.71805171  0.78194829  0.21805171  1
  Rb  Rb9  1  0.78194829  0.21805171  0.71805171  1
  Rb  Rb10  1  0.78769058  0.78769058  0.78769058  1
  Rb  Rb11  1  0.97511637  0.52488363  0.47511637  1
  Sb  Sb12  1  0.01043186  0.98956814  0.48956814  1
  Sb  Sb13  1  0.48956814  0.01043186  0.98956814  1
  Sb  Sb14  1  0.51043186  0.51043186  0.51043186  1
  Sb  Sb15  1  0.98956814  0.48956814  0.01043186  1
  O  O16  1  0.00458990  0.20654614  0.44300333  1
  O  O17  1  0.05699667  0.99541010  0.70654614  1
  O  O18  1  0.20654614  0.44300333  0.00458990  1
  O  O19  1  0.29345386  0.55699667  0.50458990  1
  O  O20  1  0.44300333  0.00458990  0.20654614  1
  O  O21  1  0.49541010  0.79345386  0.94300333  1
  O  O22  1  0.50458990  0.29345386  0.55699667  1
  O  O23  1  0.55699667  0.50458990  0.29345386  1
  O  O24  1  0.70654614  0.05699667  0.99541010  1
  O  O25  1  0.79345386  0.94300333  0.49541010  1
  O  O26  1  0.94300333  0.49541010  0.79345386  1
  O  O27  1  0.99541010  0.70654614  0.05699667  1
