# generated using pymatgen
data_V(PO3)4
_symmetry_space_group_name_H-M   'P 1'
_cell_length_a   5.19882957
_cell_length_b   13.68146455
_cell_length_c   7.33761252
_cell_angle_alpha   90.00000000
_cell_angle_beta   100.57024236
_cell_angle_gamma   90.00000000
_symmetry_Int_Tables_number   1
_chemical_formula_structural   V(PO3)4
_chemical_formula_sum   'V2 P8 O24'
_cell_volume   513.05042259
_cell_formula_units_Z   2
loop_
 _symmetry_equiv_pos_site_id
 _symmetry_equiv_pos_as_xyz
  1  'x, y, z'
loop_
 _atom_site_type_symbol
 _atom_site_label
 _atom_site_symmetry_multiplicity
 _atom_site_fract_x
 _atom_site_fract_y
 _atom_site_fract_z
 _atom_site_occupancy
  O  O0  1  0.02180890  0.14491884  0.77511754  1
  O  O1  1  0.07019024  0.73035671  0.94112588  1
  O  O2  1  0.03178274  0.89248855  0.78122468  1
  O  O3  1  0.05765662  0.51635375  0.47588511  1
  O  O4  1  0.18440869  0.37099787  0.93262851  1
  O  O5  1  0.19840807  0.34555617  0.54236918  1
  O  O6  1  0.21021818  0.68547378  0.55254904  1
  O  O7  1  0.28143561  0.14613726  0.51295158  1
  O  O8  1  0.29082100  0.88916037  0.51848206  1
  O  O9  1  0.35814821  0.27947920  0.24124434  1
  O  O10  1  0.36696641  0.75634407  0.25079516  1
  O  O11  1  0.37334704  0.59208202  0.07466573  1
  O  O12  1  0.62665347  0.09208201  0.92533366  1
  O  O13  1  0.63303213  0.25634405  0.74920400  1
  O  O14  1  0.64185230  0.77947922  0.75875505  1
  O  O15  1  0.70917950  0.38916036  0.48151733  1
  O  O16  1  0.71856294  0.64613728  0.48704757  1
  O  O17  1  0.97818965  0.64491886  0.22488161  1
  O  O18  1  0.80159050  0.84555619  0.45763134  1
  O  O19  1  0.81559184  0.87099789  0.06737225  1
  O  O20  1  0.94234391  0.01635373  0.52411565  1
  O  O21  1  0.96821583  0.39248853  0.21877584  1
  O  O22  1  0.92981027  0.23035669  0.05887351  1
  O  O23  1  0.78978236  0.18547376  0.44745172  1
  P  P24  1  0.01441974  0.12861050  0.55956100  1
  P  P25  1  0.02277362  0.90553742  0.56427800  1
  P  P26  1  0.12878283  0.32233673  0.09787979  1
  P  P27  1  0.22160765  0.67539556  0.12089857  1
  P  P28  1  0.77839286  0.17539554  0.87910082  1
  P  P29  1  0.98558079  0.62861052  0.44043976  1
  P  P30  1  0.97722492  0.40553740  0.43572116  1
  P  P31  1  0.87121767  0.82233675  0.90211960  1
  V  V32  1  0.49542331  0.26782691  0.49663733  1
  V  V33  1  0.50457722  0.76782693  0.50336343  1
