# generated using pymatgen
data_Sn2PClO4
_symmetry_space_group_name_H-M   'P 1'
_cell_length_a   4.82730381
_cell_length_b   5.07784353
_cell_length_c   13.79945651
_cell_angle_alpha   90.00000000
_cell_angle_beta   90.00000000
_cell_angle_gamma   118.38084531
_symmetry_Int_Tables_number   1
_chemical_formula_structural   Sn2PClO4
_chemical_formula_sum   'Sn4 P2 Cl2 O8'
_cell_volume   297.60046397
_cell_formula_units_Z   2
loop_
 _symmetry_equiv_pos_site_id
 _symmetry_equiv_pos_as_xyz
  1  'x, y, z'
loop_
 _atom_site_type_symbol
 _atom_site_label
 _atom_site_symmetry_multiplicity
 _atom_site_fract_x
 _atom_site_fract_y
 _atom_site_fract_z
 _atom_site_occupancy
  Sn  Sn0  1  0.22969152  0.39695619  0.11337693  1
  Sn  Sn1  1  0.83273533  0.60304381  0.61337693  1
  Sn  Sn2  1  0.83273533  0.60304381  0.88662307  1
  Sn  Sn3  1  0.22969152  0.39695619  0.38662307  1
  P  P4  1  0.91643665  0.72687277  0.25000000  1
  P  P5  1  0.18956388  0.27312723  0.75000000  1
  Cl  Cl6  1  0.45545907  0.00000000  0.00000000  1
  Cl  Cl7  1  0.45545907  0.00000000  0.50000000  1
  O  O8  1  0.72468168  0.59571269  0.15645913  1
  O  O9  1  0.54725968  0.35201536  0.75000000  1
  O  O10  1  0.06730130  0.07618031  0.25000000  1
  O  O11  1  0.12896899  0.40428731  0.84354087  1
  O  O12  1  0.72468168  0.59571269  0.34354087  1
  O  O13  1  0.12896899  0.40428731  0.65645913  1
  O  O14  1  0.19524432  0.64798464  0.25000000  1
  O  O15  1  0.99112099  0.92381969  0.75000000  1
