# generated using pymatgen
data_HgIBr
_symmetry_space_group_name_H-M   'P 1'
_cell_length_a   4.53884111
_cell_length_b   4.53884074
_cell_length_c   13.65550979
_cell_angle_alpha   90.00000000
_cell_angle_beta   90.00000000
_cell_angle_gamma   109.44681388
_symmetry_Int_Tables_number   1
_chemical_formula_structural   HgIBr
_chemical_formula_sum   'Hg2 I2 Br2'
_cell_volume   265.26927077
_cell_formula_units_Z   2
loop_
 _symmetry_equiv_pos_site_id
 _symmetry_equiv_pos_as_xyz
  1  'x, y, z'
loop_
 _atom_site_type_symbol
 _atom_site_label
 _atom_site_symmetry_multiplicity
 _atom_site_fract_x
 _atom_site_fract_y
 _atom_site_fract_z
 _atom_site_occupancy
  Hg  Hg0  1  0.82566601  0.17433399  0.00275029  1
  Hg  Hg1  1  0.17433399  0.82566601  0.50275029  1
  I  I2  1  0.90467637  0.09532363  0.62959913  1
  I  I3  1  0.09532363  0.90467637  0.12959913  1
  Br  Br4  1  0.57749158  0.42250842  0.87965058  1
  Br  Br5  1  0.42250842  0.57749158  0.37965058  1
