# generated using pymatgen
data_Li2CaHfF8
_symmetry_space_group_name_H-M   'P 1'
_cell_length_a   5.17664399
_cell_length_b   5.17659953
_cell_length_c   6.44545748
_cell_angle_alpha   113.67469003
_cell_angle_beta   113.67526830
_cell_angle_gamma   90.00282090
_symmetry_Int_Tables_number   1
_chemical_formula_structural   Li2CaHfF8
_chemical_formula_sum   'Li2 Ca1 Hf1 F8'
_cell_volume   142.16809369
_cell_formula_units_Z   1
loop_
 _symmetry_equiv_pos_site_id
 _symmetry_equiv_pos_as_xyz
  1  'x, y, z'
loop_
 _atom_site_type_symbol
 _atom_site_label
 _atom_site_symmetry_multiplicity
 _atom_site_fract_x
 _atom_site_fract_y
 _atom_site_fract_z
 _atom_site_occupancy
  Li  Li0  1  0.24996880  0.74997894  0.49998557  1
  Li  Li1  1  0.49997355  0.49998535  0.00000885  1
  F  F2  1  0.60689729  0.00902895  0.63964596  1
  F  F3  1  0.11988762  0.26283171  0.82119687  1
  F  F4  1  0.99099838  0.96733438  0.36039345  1
  F  F5  1  0.36948348  0.39313153  0.36029117  1
  F  F6  1  0.03272033  0.63059527  0.63969022  1
  F  F7  1  0.73728958  0.29875955  0.17879998  1
  F  F8  1  0.70117289  0.55831141  0.82111779  1
  F  F9  1  0.44162724  0.88007856  0.17887917  1
  Ca  Ca10  1  0.99999071  0.99997705  -0.00001009  1
  Hf  Hf11  1  0.74999014  0.24998728  0.50000106  1
