# generated using pymatgen
data_Mg(InSe2)2
_symmetry_space_group_name_H-M   'P 1'
_cell_length_a   8.10465353
_cell_length_b   8.10467504
_cell_length_c   8.09844190
_cell_angle_alpha   60.02526198
_cell_angle_beta   60.02552569
_cell_angle_gamma   59.94921233
_symmetry_Int_Tables_number   1
_chemical_formula_structural   Mg(InSe2)2
_chemical_formula_sum   'Mg2 In4 Se8'
_cell_volume   376.14563073
_cell_formula_units_Z   2
loop_
 _symmetry_equiv_pos_site_id
 _symmetry_equiv_pos_as_xyz
  1  'x, y, z'
loop_
 _atom_site_type_symbol
 _atom_site_label
 _atom_site_symmetry_multiplicity
 _atom_site_fract_x
 _atom_site_fract_y
 _atom_site_fract_z
 _atom_site_occupancy
  Mg  Mg0  1  0.00000000  -0.00000000  0.00000000  1
  Mg  Mg1  1  0.25000000  0.25000000  0.25000000  1
  In  In2  1  0.62500000  0.62500000  0.12500000  1
  In  In3  1  0.62500000  0.12500000  0.62500000  1
  In  In4  1  0.12500000  0.62500000  0.62500000  1
  In  In5  1  0.62500000  0.62500000  0.62500000  1
  Se  Se6  1  0.38236968  0.38237475  0.38182380  1
  Se  Se7  1  0.85343178  0.38182380  0.38237475  1
  Se  Se8  1  0.38182380  0.85343178  0.38236968  1
  Se  Se9  1  0.38237475  0.38236968  0.85343178  1
  Se  Se10  1  0.86817620  0.39656822  0.86763032  1
  Se  Se11  1  0.86762525  0.86763032  0.39656822  1
  Se  Se12  1  0.39656822  0.86817620  0.86762525  1
  Se  Se13  1  0.86763032  0.86762525  0.86817620  1
