# generated using pymatgen
data_InBr3
_symmetry_space_group_name_H-M   'P 1'
_cell_length_a   7.14393325
_cell_length_b   6.91945578
_cell_length_c   6.93429141
_cell_angle_alpha   60.07074891
_cell_angle_beta   80.95816309
_cell_angle_gamma   71.64007708
_symmetry_Int_Tables_number   1
_chemical_formula_structural   InBr3
_chemical_formula_sum   'In2 Br6'
_cell_volume   281.94319889
_cell_formula_units_Z   2
loop_
 _symmetry_equiv_pos_site_id
 _symmetry_equiv_pos_as_xyz
  1  'x, y, z'
loop_
 _atom_site_type_symbol
 _atom_site_label
 _atom_site_symmetry_multiplicity
 _atom_site_fract_x
 _atom_site_fract_y
 _atom_site_fract_z
 _atom_site_occupancy
  In  In0  1  1.00000000  0.83403079  0.33193842  1
  In  In1  1  0.00000000  0.16596921  0.66806158  1
  Br  Br2  1  0.23395591  0.78218656  1.00000000  1
  Br  Br3  1  0.76881129  0.93167882  0.64294469  1
  Br  Br4  1  0.76604409  0.21781344  0.00000000  1
  Br  Br5  1  0.23118871  0.06832118  0.35705531  1
  Br  Br6  1  0.76881129  0.57462351  0.35705531  1
  Br  Br7  1  0.23118871  0.42537649  0.64294469  1
