# generated using pymatgen
data_VS4
_symmetry_space_group_name_H-M   'P 1'
_cell_length_a   7.30609014
_cell_length_b   8.62159284
_cell_length_c   8.62082215
_cell_angle_alpha   82.21579541
_cell_angle_beta   71.75725729
_cell_angle_gamma   71.75230371
_symmetry_Int_Tables_number   1
_chemical_formula_structural   VS4
_chemical_formula_sum   'V4 S16'
_cell_volume   489.37650936
_cell_formula_units_Z   4
loop_
 _symmetry_equiv_pos_site_id
 _symmetry_equiv_pos_as_xyz
  1  'x, y, z'
loop_
 _atom_site_type_symbol
 _atom_site_label
 _atom_site_symmetry_multiplicity
 _atom_site_fract_x
 _atom_site_fract_y
 _atom_site_fract_z
 _atom_site_occupancy
  V  V0  1  0.11607596  0.88438334  0.88374717  1
  V  V1  1  0.88392404  0.11561666  0.11625283  1
  V  V2  1  0.38392347  0.61624599  0.61560035  1
  V  V3  1  0.61607653  0.38375401  0.38439965  1
  S  S4  1  0.53848100  0.67268924  0.33446310  1
  S  S5  1  0.26909572  0.42219203  0.52790786  1
  S  S6  1  0.46151900  0.32731076  0.66553690  1
  S  S7  1  0.23087376  0.97213024  0.07776583  1
  S  S8  1  0.95783344  0.34989569  0.17346161  1
  S  S9  1  0.43859675  0.87008158  0.69185152  1
  S  S10  1  0.93863171  0.19179725  0.37005966  1
  S  S11  1  0.76912624  0.02786976  0.92223417  1
  S  S12  1  0.73090428  0.57780797  0.47209214  1
  S  S13  1  0.45772080  0.67351584  0.84995920  1
  S  S14  1  0.56140325  0.12991842  0.30814848  1
  S  S15  1  0.06136829  0.80820275  0.62994034  1
  S  S16  1  0.04216656  0.65010431  0.82653839  1
  S  S17  1  0.03840976  0.83448797  0.17272838  1
  S  S18  1  0.54227920  0.32648416  0.15004080  1
  S  S19  1  0.96159024  0.16551203  0.82727162  1
