# generated using pymatgen
data_LiMn2F6
_symmetry_space_group_name_H-M   'P 1'
_cell_length_a   8.86973391
_cell_length_b   8.86592352
_cell_length_c   4.67766023
_cell_angle_alpha   89.93862800
_cell_angle_beta   90.00000000
_cell_angle_gamma   120.01422178
_symmetry_Int_Tables_number   1
_chemical_formula_structural   LiMn2F6
_chemical_formula_sum   'Li3 Mn6 F18'
_cell_volume   318.51602592
_cell_formula_units_Z   3
loop_
 _symmetry_equiv_pos_site_id
 _symmetry_equiv_pos_as_xyz
  1  'x, y, z'
loop_
 _atom_site_type_symbol
 _atom_site_label
 _atom_site_symmetry_multiplicity
 _atom_site_fract_x
 _atom_site_fract_y
 _atom_site_fract_z
 _atom_site_occupancy
  Li  Li0  1  0.33333282  0.66654039  0.48560841  1
  Li  Li1  1  0.00002301  1.00000000  0.00000000  1
  Li  Li2  1  0.66679243  0.33345961  0.51439159  1
  Mn  Mn3  1  0.99936513  0.64361377  -0.00001546  1
  Mn  Mn4  1  0.00006150  0.31329528  0.49994944  1
  Mn  Mn5  1  0.35575135  0.35638623  0.00001546  1
  Mn  Mn6  1  0.31346958  0.00000000  0.50000000  1
  Mn  Mn7  1  0.68676722  0.68670472  0.50005056  1
  Mn  Mn8  1  0.64446476  0.00000000  1.00000000  1
  F  F9  1  0.11492847  0.89108676  0.75366031  1
  F  F10  1  0.21204861  0.76849428  0.26743705  1
  F  F11  1  0.10559923  0.52385358  0.72874287  1
  F  F12  1  0.41827360  0.89391491  0.72747034  1
  F  F13  1  0.10739767  0.22115309  0.75304630  1
  F  F14  1  0.23161284  0.44433617  0.26682701  1
  F  F15  1  0.55583544  0.78747292  0.26776809  1
  F  F16  1  0.22384072  0.10891324  0.24633969  1
  F  F17  1  0.47561340  0.58102822  0.72870274  1
  F  F18  1  0.44355432  0.23150572  0.73256295  1
  F  F19  1  0.77726797  0.88593834  0.75447134  1
  F  F20  1  0.58174465  0.47614642  0.27125713  1
  F  F21  1  0.52435869  0.10608509  0.27252966  1
  F  F22  1  0.88624458  0.77884691  0.24695370  1
  F  F23  1  0.78727667  0.55566383  0.73317299  1
  F  F24  1  0.76836252  0.21252708  0.73223191  1
  F  F25  1  0.89458417  0.41897178  0.27129726  1
  F  F26  1  0.89132864  0.11406166  0.24552866  1
