# generated using pymatgen
data_BaAl2Sb2O7
_symmetry_space_group_name_H-M   'P 1'
_cell_length_a   8.76911007
_cell_length_b   8.76911008
_cell_length_c   8.76911008
_cell_angle_alpha   36.63099229
_cell_angle_beta   36.63099223
_cell_angle_gamma   36.63099228
_symmetry_Int_Tables_number   1
_chemical_formula_structural   BaAl2Sb2O7
_chemical_formula_sum   'Ba1 Al2 Sb2 O7'
_cell_volume   214.95521993
_cell_formula_units_Z   1
loop_
 _symmetry_equiv_pos_site_id
 _symmetry_equiv_pos_as_xyz
  1  'x, y, z'
loop_
 _atom_site_type_symbol
 _atom_site_label
 _atom_site_symmetry_multiplicity
 _atom_site_fract_x
 _atom_site_fract_y
 _atom_site_fract_z
 _atom_site_occupancy
  O  O0  1  0.57123008  0.97533111  0.16209325  1
  O  O1  1  0.97533111  0.16209325  0.57123008  1
  O  O2  1  0.16209325  0.57123008  0.97533111  1
  O  O3  1  0.83790675  0.02466889  0.42876992  1
  O  O4  1  0.02466889  0.42876992  0.83790675  1
  O  O5  1  0.00000000  0.00000000  0.00000000  1
  O  O6  1  0.42876992  0.83790675  0.02466889  1
  Al  Al7  1  0.92931519  0.92931519  0.92931519  1
  Al  Al8  1  0.07068481  0.07068481  0.07068481  1
  Sb  Sb9  1  0.72071479  0.72071479  0.72071479  1
  Sb  Sb10  1  0.27928521  0.27928521  0.27928521  1
  Ba  Ba11  1  0.50000000  0.50000000  0.50000000  1
