# generated using pymatgen
data_NaYP2O7
_symmetry_space_group_name_H-M   'P 1'
_cell_length_a   5.44081167
_cell_length_b   7.16530508
_cell_length_c   8.79676198
_cell_angle_alpha   110.41123593
_cell_angle_beta   90.00000000
_cell_angle_gamma   90.00000000
_symmetry_Int_Tables_number   1
_chemical_formula_structural   NaYP2O7
_chemical_formula_sum   'Na2 Y2 P4 O14'
_cell_volume   321.41031459
_cell_formula_units_Z   2
loop_
 _symmetry_equiv_pos_site_id
 _symmetry_equiv_pos_as_xyz
  1  'x, y, z'
loop_
 _atom_site_type_symbol
 _atom_site_label
 _atom_site_symmetry_multiplicity
 _atom_site_fract_x
 _atom_site_fract_y
 _atom_site_fract_z
 _atom_site_occupancy
  O  O0  1  0.22758011  0.97314951  0.76822286  1
  O  O1  1  0.72758011  0.02685049  0.23177714  1
  O  O2  1  0.86623991  0.37105995  0.77007848  1
  O  O3  1  0.36623991  0.62894005  0.22992152  1
  O  O4  1  0.76649607  0.97763572  0.79133120  1
  O  O5  1  0.26649607  0.02236428  0.20866880  1
  O  O6  1  0.98522884  0.64605236  0.66961569  1
  O  O7  1  0.48522884  0.35394764  0.33038431  1
  O  O8  1  0.80435251  0.49366474  0.18948438  1
  O  O9  1  0.30435251  0.50633526  0.81051562  1
  O  O10  1  0.45439693  0.28077317  0.02811055  1
  O  O11  1  0.95439693  0.71922683  0.97188945  1
  O  O12  1  0.46186710  0.12688810  0.48879224  1
  O  O13  1  0.96186710  0.87311190  0.51120776  1
  Na  Na14  1  0.51228742  0.83465025  0.94428616  1
  Na  Na15  1  0.01228742  0.16534975  0.05571384  1
  P  P16  1  0.98771651  0.87791779  0.68425099  1
  P  P17  1  0.48771651  0.12208221  0.31574901  1
  P  P18  1  0.02906625  0.55496425  0.81297316  1
  P  P19  1  0.52906625  0.44503575  0.18702684  1
  Y  Y20  1  0.50706834  0.21016190  0.75265795  1
  Y  Y21  1  0.00706834  0.78983810  0.24734205  1
