# generated using pymatgen
data_Li2CrO3
_symmetry_space_group_name_H-M   'P 1'
_cell_length_a   5.02372460
_cell_length_b   5.02372460
_cell_length_c   4.99943388
_cell_angle_alpha   79.25869869
_cell_angle_beta   100.74130131
_cell_angle_gamma   61.72641355
_symmetry_Int_Tables_number   1
_chemical_formula_structural   Li2CrO3
_chemical_formula_sum   'Li4 Cr2 O6'
_cell_volume   103.52841873
_cell_formula_units_Z   2
loop_
 _symmetry_equiv_pos_site_id
 _symmetry_equiv_pos_as_xyz
  1  'x, y, z'
loop_
 _atom_site_type_symbol
 _atom_site_label
 _atom_site_symmetry_multiplicity
 _atom_site_fract_x
 _atom_site_fract_y
 _atom_site_fract_z
 _atom_site_occupancy
  Li  Li0  1  0.24647112  0.26306958  0.49120398  1
  Li  Li1  1  0.56802255  0.59656884  0.49569272  1
  Li  Li2  1  0.40343116  0.43197745  0.99569272  1
  Li  Li3  1  0.73693042  0.75352888  0.99120398  1
  Cr  Cr4  1  0.90815207  0.90984107  0.50361789  1
  Cr  Cr5  1  0.09015893  0.09184793  0.00361789  1
  O  O6  1  0.28949147  0.86207880  0.75209932  1
  O  O7  1  0.13792120  0.71050853  0.25209932  1
  O  O8  1  0.98820422  0.51950395  0.73097556  1
  O  O9  1  0.70376669  0.15544386  0.72420952  1
  O  O10  1  0.48049605  0.01179578  0.23097556  1
  O  O11  1  0.84455614  0.29623331  0.22420952  1
