# generated using pymatgen
data_Ni(HO)2
_symmetry_space_group_name_H-M   'P 1'
_cell_length_a   3.16134982
_cell_length_b   3.16134982
_cell_length_c   4.60214747
_cell_angle_alpha   90.00000000
_cell_angle_beta   90.00000000
_cell_angle_gamma   120.00000004
_symmetry_Int_Tables_number   1
_chemical_formula_structural   Ni(HO)2
_chemical_formula_sum   'Ni1 H2 O2'
_cell_volume   39.83238151
_cell_formula_units_Z   1
loop_
 _symmetry_equiv_pos_site_id
 _symmetry_equiv_pos_as_xyz
  1  'x, y, z'
loop_
 _atom_site_type_symbol
 _atom_site_label
 _atom_site_symmetry_multiplicity
 _atom_site_fract_x
 _atom_site_fract_y
 _atom_site_fract_z
 _atom_site_occupancy
  H  H0  1  0.66666781  0.33333258  0.56664952  1
  H  H1  1  0.33333258  0.66666516  0.43335115  1
  O  O2  1  0.33333258  0.66666516  0.22176736  1
  O  O3  1  0.66666781  0.33333258  0.77823109  1
  Ni  Ni4  1  0.00000000  0.00000000  0.00000000  1
