# generated using pymatgen
data_CsBrF6
_symmetry_space_group_name_H-M   'P 1'
_cell_length_a   5.39595302
_cell_length_b   5.39595320
_cell_length_c   5.39595274
_cell_angle_alpha   96.58629328
_cell_angle_beta   96.58629336
_cell_angle_gamma   96.58629300
_symmetry_Int_Tables_number   1
_chemical_formula_structural   CsBrF6
_chemical_formula_sum   'Cs1 Br1 F6'
_cell_volume   153.73652559
_cell_formula_units_Z   1
loop_
 _symmetry_equiv_pos_site_id
 _symmetry_equiv_pos_as_xyz
  1  'x, y, z'
loop_
 _atom_site_type_symbol
 _atom_site_label
 _atom_site_symmetry_multiplicity
 _atom_site_fract_x
 _atom_site_fract_y
 _atom_site_fract_z
 _atom_site_occupancy
  Cs  Cs0  1  0.50000000  0.50000000  0.50000000  1
  Br  Br1  1  0.00000000  0.00000000  0.00000000  1
  F  F2  1  0.80909979  0.70606427  0.07677432  1
  F  F3  1  0.07677432  0.80909979  0.70606427  1
  F  F4  1  0.70606427  0.07677432  0.80909979  1
  F  F5  1  0.19090021  0.29393573  0.92322568  1
  F  F6  1  0.92322568  0.19090021  0.29393573  1
  F  F7  1  0.29393573  0.92322568  0.19090021  1
