# generated using pymatgen
data_LiNbFeO4
_symmetry_space_group_name_H-M   'P 1'
_cell_length_a   6.15393187
_cell_length_b   6.15393187
_cell_length_c   8.78140937
_cell_angle_alpha   90.00000000
_cell_angle_beta   90.00000000
_cell_angle_gamma   90.00000000
_symmetry_Int_Tables_number   1
_chemical_formula_structural   LiNbFeO4
_chemical_formula_sum   'Li4 Nb4 Fe4 O16'
_cell_volume   332.55967818
_cell_formula_units_Z   4
loop_
 _symmetry_equiv_pos_site_id
 _symmetry_equiv_pos_as_xyz
  1  'x, y, z'
loop_
 _atom_site_type_symbol
 _atom_site_label
 _atom_site_symmetry_multiplicity
 _atom_site_fract_x
 _atom_site_fract_y
 _atom_site_fract_z
 _atom_site_occupancy
  Li  Li0  1  0.00000000  0.23427059  0.00000000  1
  Li  Li1  1  0.00000000  0.76572941  0.50000000  1
  Li  Li2  1  0.23427059  0.00000000  0.25000000  1
  Li  Li3  1  0.76572941  0.00000000  0.75000000  1
  Nb  Nb4  1  0.25098834  0.25098834  0.62500000  1
  Nb  Nb5  1  0.25098834  0.74901166  0.87500000  1
  Nb  Nb6  1  0.74901166  0.25098834  0.37500000  1
  Nb  Nb7  1  0.74901166  0.74901166  0.12500000  1
  Fe  Fe8  1  0.24460839  0.50000000  0.25000000  1
  Fe  Fe9  1  0.50000000  0.24460839  0.00000000  1
  Fe  Fe10  1  0.50000000  0.75539161  0.50000000  1
  Fe  Fe11  1  0.75539161  0.50000000  0.75000000  1
  O  O12  1  0.00097490  0.25491098  0.25385135  1
  O  O13  1  0.00097490  0.74508902  0.24614865  1
  O  O14  1  0.25491098  0.00097490  0.99614865  1
  O  O15  1  0.25491098  0.99902510  0.50385135  1
  O  O16  1  0.25498628  0.49827221  0.00165262  1
  O  O17  1  0.25498628  0.50172779  0.49834738  1
  O  O18  1  0.49827221  0.25498628  0.24834738  1
  O  O19  1  0.49827221  0.74501372  0.25165262  1
  O  O20  1  0.50172779  0.25498628  0.75165262  1
  O  O21  1  0.50172779  0.74501372  0.74834738  1
  O  O22  1  0.74501372  0.50172779  0.50165262  1
  O  O23  1  0.74501372  0.49827221  0.99834738  1
  O  O24  1  0.74508902  0.00097490  0.00385135  1
  O  O25  1  0.74508902  0.99902510  0.49614865  1
  O  O26  1  0.99902510  0.25491098  0.74614865  1
  O  O27  1  0.99902510  0.74508902  0.75385135  1
