# generated using pymatgen
data_SnCl2
_symmetry_space_group_name_H-M   'P 1'
_cell_length_a   4.35374266
_cell_length_b   8.04588538
_cell_length_c   10.05593603
_cell_angle_alpha   90.00000000
_cell_angle_beta   90.00000000
_cell_angle_gamma   90.00000000
_symmetry_Int_Tables_number   1
_chemical_formula_structural   SnCl2
_chemical_formula_sum   'Sn4 Cl8'
_cell_volume   352.25656732
_cell_formula_units_Z   4
loop_
 _symmetry_equiv_pos_site_id
 _symmetry_equiv_pos_as_xyz
  1  'x, y, z'
loop_
 _atom_site_type_symbol
 _atom_site_label
 _atom_site_symmetry_multiplicity
 _atom_site_fract_x
 _atom_site_fract_y
 _atom_site_fract_z
 _atom_site_occupancy
  Sn  Sn0  1  0.75000000  0.77148726  0.55123407  1
  Sn  Sn1  1  0.25000000  0.22851274  0.44876593  1
  Sn  Sn2  1  0.25000000  0.72851274  0.05123407  1
  Sn  Sn3  1  0.75000000  0.27148726  0.94876593  1
  Cl  Cl4  1  0.25000000  0.50922661  0.85733777  1
  Cl  Cl5  1  0.25000000  0.14712935  0.08856901  1
  Cl  Cl6  1  0.25000000  0.00922661  0.64266223  1
  Cl  Cl7  1  0.75000000  0.49077339  0.14266223  1
  Cl  Cl8  1  0.75000000  0.85287065  0.91143099  1
  Cl  Cl9  1  0.75000000  0.35287065  0.58856901  1
  Cl  Cl10  1  0.25000000  0.64712935  0.41143099  1
  Cl  Cl11  1  0.75000000  0.99077339  0.35733777  1
