# generated using pymatgen
data_Na4SnTe4
_symmetry_space_group_name_H-M   'P 1'
_cell_length_a   8.74652826
_cell_length_b   8.89146479
_cell_length_c   15.41019726
_cell_angle_alpha   90.00000000
_cell_angle_beta   90.00000000
_cell_angle_gamma   90.00000000
_symmetry_Int_Tables_number   1
_chemical_formula_structural   Na4SnTe4
_chemical_formula_sum   'Na16 Sn4 Te16'
_cell_volume   1198.44253538
_cell_formula_units_Z   4
loop_
 _symmetry_equiv_pos_site_id
 _symmetry_equiv_pos_as_xyz
  1  'x, y, z'
loop_
 _atom_site_type_symbol
 _atom_site_label
 _atom_site_symmetry_multiplicity
 _atom_site_fract_x
 _atom_site_fract_y
 _atom_site_fract_z
 _atom_site_occupancy
  Na  Na0  1  0.98558972  0.96012064  0.58387139  1
  Na  Na1  1  0.48558972  0.53987936  0.41612861  1
  Na  Na2  1  0.01441028  0.46012064  0.91612861  1
  Na  Na3  1  0.51441028  0.03987936  0.08387139  1
  Na  Na4  1  0.62472923  0.76860571  0.63345714  1
  Na  Na5  1  0.12472923  0.73139429  0.36654286  1
  Na  Na6  1  0.37527077  0.26860571  0.86654286  1
  Na  Na7  1  0.87527077  0.23139429  0.13345714  1
  Na  Na8  1  0.66724176  0.63074654  0.13357506  1
  Na  Na9  1  0.16724176  0.86925346  0.86642494  1
  Na  Na10  1  0.33275824  0.13074654  0.36642494  1
  Na  Na11  1  0.83275824  0.36925346  0.63357506  1
  Na  Na12  1  0.88075689  0.35688570  0.37144012  1
  Na  Na13  1  0.38075689  0.14311430  0.62855988  1
  Na  Na14  1  0.11924311  0.85688570  0.12855988  1
  Na  Na15  1  0.61924311  0.64311430  0.87144012  1
  Sn  Sn16  1  0.77896369  0.06920705  0.87337187  1
  Sn  Sn17  1  0.27896369  0.43079295  0.12662813  1
  Sn  Sn18  1  0.22103631  0.56920705  0.62662813  1
  Sn  Sn19  1  0.72103631  0.93079295  0.37337187  1
  Te  Te20  1  0.81294460  0.68022577  0.46922605  1
  Te  Te21  1  0.31294460  0.81977423  0.53077395  1
  Te  Te22  1  0.18705540  0.18022577  0.03077395  1
  Te  Te23  1  0.68705540  0.31977423  0.96922605  1
  Te  Te24  1  0.48491314  0.84807971  0.26165177  1
  Te  Te25  1  0.98491314  0.65192029  0.73834823  1
  Te  Te26  1  0.51508686  0.34807971  0.23834823  1
  Te  Te27  1  0.01508686  0.15192029  0.76165177  1
  Te  Te28  1  0.64514122  0.16242538  0.48846841  1
  Te  Te29  1  0.14514122  0.33757462  0.51153159  1
  Te  Te30  1  0.35485878  0.66242538  0.01153159  1
  Te  Te31  1  0.85485878  0.83757462  0.98846841  1
  Te  Te32  1  0.98464674  0.03910674  0.29106445  1
  Te  Te33  1  0.48464674  0.46089326  0.70893555  1
  Te  Te34  1  0.01535326  0.53910674  0.20893555  1
  Te  Te35  1  0.51535326  0.96089326  0.79106445  1
