# generated using pymatgen
data_LiMn2(PO4)2
_symmetry_space_group_name_H-M   'P 1'
_cell_length_a   4.57946730
_cell_length_b   5.25114502
_cell_length_c   7.49744307
_cell_angle_alpha   87.30480019
_cell_angle_beta   76.84685270
_cell_angle_gamma   77.11704222
_symmetry_Int_Tables_number   1
_chemical_formula_structural   LiMn2(PO4)2
_chemical_formula_sum   'Li1 Mn2 P2 O8'
_cell_volume   171.14370280
_cell_formula_units_Z   1
loop_
 _symmetry_equiv_pos_site_id
 _symmetry_equiv_pos_as_xyz
  1  'x, y, z'
loop_
 _atom_site_type_symbol
 _atom_site_label
 _atom_site_symmetry_multiplicity
 _atom_site_fract_x
 _atom_site_fract_y
 _atom_site_fract_z
 _atom_site_occupancy
  Li  Li0  1  0.31483985  0.68814889  0.98008218  1
  Mn  Mn1  1  0.02033924  0.74172553  0.62963927  1
  Mn  Mn2  1  0.98310936  0.23034151  0.39784486  1
  P  P3  1  0.35329446  0.18046575  0.73073575  1
  P  P4  1  0.64421193  0.82632162  0.26589984  1
  O  O5  1  0.17896914  0.34799968  0.58393003  1
  O  O6  1  0.30521770  0.90597325  0.38695199  1
  O  O7  1  0.23022074  0.93113144  0.78521295  1
  O  O8  1  0.31220084  0.36599691  0.88502088  1
  O  O9  1  0.64753992  0.71961682  0.08286070  1
  O  O10  1  0.79279759  0.07038810  0.23940983  1
  O  O11  1  0.69526356  0.08951396  0.62482536  1
  O  O12  1  0.81673867  0.61606353  0.38655736  1
