# generated using pymatgen
data_ZrCl4
_symmetry_space_group_name_H-M   'P 1'
_cell_length_a   6.37969442
_cell_length_b   6.72112018
_cell_length_c   7.76045169
_cell_angle_alpha   90.00000000
_cell_angle_beta   90.00000000
_cell_angle_gamma   108.81933641
_symmetry_Int_Tables_number   1
_chemical_formula_structural   ZrCl4
_chemical_formula_sum   'Zr2 Cl8'
_cell_volume   314.96892958
_cell_formula_units_Z   2
loop_
 _symmetry_equiv_pos_site_id
 _symmetry_equiv_pos_as_xyz
  1  'x, y, z'
loop_
 _atom_site_type_symbol
 _atom_site_label
 _atom_site_symmetry_multiplicity
 _atom_site_fract_x
 _atom_site_fract_y
 _atom_site_fract_z
 _atom_site_occupancy
  Zr  Zr0  1  0.75000000  0.00000000  0.83909786  1
  Zr  Zr1  1  0.25000000  0.00000000  0.16090214  1
  Cl  Cl2  1  0.02909462  0.75352161  0.35435843  1
  Cl  Cl3  1  0.49935949  0.21562809  0.89713077  1
  Cl  Cl4  1  0.50064051  0.78437191  0.10286923  1
  Cl  Cl5  1  0.97090538  0.24647839  0.64564157  1
  Cl  Cl6  1  0.00064051  0.78437191  0.89713077  1
  Cl  Cl7  1  0.52909462  0.75352161  0.64564157  1
  Cl  Cl8  1  0.47090538  0.24647839  0.35435843  1
  Cl  Cl9  1  0.99935949  0.21562809  0.10286923  1
