# generated using pymatgen
data_K4IrO4
_symmetry_space_group_name_H-M   'P 1'
_cell_length_a   5.65660808
_cell_length_b   5.65660808
_cell_length_c   6.27973945
_cell_angle_alpha   76.48519621
_cell_angle_beta   76.48519622
_cell_angle_gamma   69.02217201
_symmetry_Int_Tables_number   1
_chemical_formula_structural   K4IrO4
_chemical_formula_sum   'K4 Ir1 O4'
_cell_volume   179.91267768
_cell_formula_units_Z   1
loop_
 _symmetry_equiv_pos_site_id
 _symmetry_equiv_pos_as_xyz
  1  'x, y, z'
loop_
 _atom_site_type_symbol
 _atom_site_label
 _atom_site_symmetry_multiplicity
 _atom_site_fract_x
 _atom_site_fract_y
 _atom_site_fract_z
 _atom_site_occupancy
  O  O0  1  0.10293510  0.67649706  0.19915112  1
  O  O1  1  0.67649706  0.10293510  0.19915112  1
  O  O2  1  0.32350294  0.89706490  0.80084888  1
  O  O3  1  0.89706490  0.32350294  0.80084888  1
  K  K4  1  0.62186902  0.62186902  0.13419747  1
  K  K5  1  0.19352654  0.19352654  0.41738899  1
  K  K6  1  0.37813098  0.37813098  0.86580253  1
  K  K7  1  0.80647346  0.80647346  0.58261101  1
  Ir  Ir8  1  0.00000000  0.00000000  0.00000000  1
