# generated using pymatgen
data_Sm3GaO6
_symmetry_space_group_name_H-M   'P 1'
_cell_length_a   5.56792286
_cell_length_b   7.33408263
_cell_length_c   7.33408263
_cell_angle_alpha   102.83756517
_cell_angle_beta   90.00000000
_cell_angle_gamma   90.00000000
_symmetry_Int_Tables_number   1
_chemical_formula_structural   Sm3GaO6
_chemical_formula_sum   'Sm6 Ga2 O12'
_cell_volume   292.00558308
_cell_formula_units_Z   2
loop_
 _symmetry_equiv_pos_site_id
 _symmetry_equiv_pos_as_xyz
  1  'x, y, z'
loop_
 _atom_site_type_symbol
 _atom_site_label
 _atom_site_symmetry_multiplicity
 _atom_site_fract_x
 _atom_site_fract_y
 _atom_site_fract_z
 _atom_site_occupancy
  O  O0  1  0.83009810  0.78489951  0.21510049  1
  O  O1  1  0.33009810  0.21510049  0.78489951  1
  O  O2  1  0.36475666  0.95885489  0.04114511  1
  O  O3  1  0.86475666  0.04114511  0.95885489  1
  O  O4  1  0.30245917  0.32578935  0.35466760  1
  O  O5  1  0.80245917  0.67421065  0.64533240  1
  O  O6  1  0.30245917  0.64533240  0.67421065  1
  O  O7  1  0.80245917  0.35466760  0.32578935  1
  O  O8  1  0.82656366  0.41812629  0.89312675  1
  O  O9  1  0.32656366  0.58187371  0.10687325  1
  O  O10  1  0.82656366  0.10687325  0.58187371  1
  O  O11  1  0.32656366  0.89312675  0.41812629  1
  Ga  Ga12  1  0.49881778  0.80697200  0.19302800  1
  Ga  Ga13  1  0.99881778  0.19302800  0.80697200  1
  Sm  Sm14  1  0.07701542  0.60278048  0.39721952  1
  Sm  Sm15  1  0.57701542  0.39721952  0.60278048  1
  Sm  Sm16  1  0.03143819  0.08745649  0.29902924  1
  Sm  Sm17  1  0.53143819  0.91254351  0.70097076  1
  Sm  Sm18  1  0.03143819  0.70097076  0.91254351  1
  Sm  Sm19  1  0.53143819  0.29902924  0.08745649  1
