# generated using pymatgen
data_Na4BeAlSi4ClO12
_symmetry_space_group_name_H-M   'P 1'
_cell_length_a   7.62803024
_cell_length_b   7.62803024
_cell_length_c   7.62803024
_cell_angle_alpha   108.07371036
_cell_angle_beta   110.17446273
_cell_angle_gamma   110.17446276
_symmetry_Int_Tables_number   1
_chemical_formula_structural   Na4BeAlSi4ClO12
_chemical_formula_sum   'Na4 Be1 Al1 Si4 Cl1 O12'
_cell_volume   341.52467026
_cell_formula_units_Z   1
loop_
 _symmetry_equiv_pos_site_id
 _symmetry_equiv_pos_as_xyz
  1  'x, y, z'
loop_
 _atom_site_type_symbol
 _atom_site_label
 _atom_site_symmetry_multiplicity
 _atom_site_fract_x
 _atom_site_fract_y
 _atom_site_fract_z
 _atom_site_occupancy
  Be  Be0  1  0.50000000  0.75000000  0.25000000  1
  O  O1  1  0.30904818  0.69800489  0.31198232  1
  O  O2  1  0.01663500  0.70849906  0.42398557  1
  O  O3  1  0.71548651  0.30813594  0.29150094  1
  O  O4  1  0.38602257  0.68801768  0.99706586  1
  O  O5  1  0.69095182  0.00293414  0.38895671  1
  O  O6  1  0.98336500  0.40735057  0.69186406  1
  O  O7  1  0.61397743  0.61104329  0.30199511  1
  O  O8  1  0.57263951  0.28622277  0.56226641  1
  O  O9  1  0.72395637  0.43773359  0.01037311  1
  O  O10  1  0.27604363  0.28641674  0.71377723  1
  O  O11  1  0.42736049  0.98962689  0.71358326  1
  O  O12  1  0.28451349  0.57601443  0.59264943  1
  Na  Na13  1  0.04109609  0.66264314  0.01609839  1
  Na  Na14  1  0.95890391  0.97500229  0.62154705  1
  Na  Na15  1  0.64654476  0.98390161  0.02499771  1
  Na  Na16  1  0.35345524  0.37845295  0.33735686  1
  Al  Al17  1  0.50000000  0.25000000  0.75000000  1
  Si  Si18  1  0.75933300  0.51740020  0.25095891  1
  Si  Si19  1  0.26644130  0.74904109  0.50837410  1
  Si  Si20  1  0.24066700  0.49162590  0.75806720  1
  Si  Si21  1  0.73355870  0.24193280  0.48259980  1
  Cl  Cl22  1  0.00000000  0.00000000  0.00000000  1
