# generated using pymatgen
data_CaV2O6
_symmetry_space_group_name_H-M   'P 1'
_cell_length_a   3.69740855
_cell_length_b   5.55279584
_cell_length_c   7.26500034
_cell_angle_alpha   102.05907993
_cell_angle_beta   90.00000000
_cell_angle_gamma   109.44684216
_symmetry_Int_Tables_number   1
_chemical_formula_structural   CaV2O6
_chemical_formula_sum   'Ca1 V2 O6'
_cell_volume   137.15251779
_cell_formula_units_Z   1
loop_
 _symmetry_equiv_pos_site_id
 _symmetry_equiv_pos_as_xyz
  1  'x, y, z'
loop_
 _atom_site_type_symbol
 _atom_site_label
 _atom_site_symmetry_multiplicity
 _atom_site_fract_x
 _atom_site_fract_y
 _atom_site_fract_z
 _atom_site_occupancy
  O  O0  1  0.75560820  0.51121645  0.60331091  1
  O  O1  1  0.24439177  0.48878355  0.39668845  1
  O  O2  1  0.36788185  0.73576369  0.86740627  1
  O  O3  1  0.10044415  0.20088830  0.74127933  1
  O  O4  1  0.63211812  0.26423631  0.13259309  1
  O  O5  1  0.89955582  0.79911170  0.25872003  1
  Ca  Ca6  1  0.00000000  0.00000000  0.00000000  1
  V  V7  1  0.24124973  0.48249946  0.67236429  1
  V  V8  1  0.75875022  0.51750051  0.32763644  1
