# generated using pymatgen
data_LiMn2OF3
_symmetry_space_group_name_H-M   'P 1'
_cell_length_a   6.49674479
_cell_length_b   6.65059764
_cell_length_c   8.17275068
_cell_angle_alpha   90.00000000
_cell_angle_beta   90.00000000
_cell_angle_gamma   90.00000000
_symmetry_Int_Tables_number   1
_chemical_formula_structural   LiMn2OF3
_chemical_formula_sum   'Li4 Mn8 O4 F12'
_cell_volume   353.12196411
_cell_formula_units_Z   4
loop_
 _symmetry_equiv_pos_site_id
 _symmetry_equiv_pos_as_xyz
  1  'x, y, z'
loop_
 _atom_site_type_symbol
 _atom_site_label
 _atom_site_symmetry_multiplicity
 _atom_site_fract_x
 _atom_site_fract_y
 _atom_site_fract_z
 _atom_site_occupancy
  Li  Li0  1  0.00000000  0.75557783  0.86356331  1
  Li  Li1  1  0.50000000  0.24442217  0.38643669  1
  Li  Li2  1  0.50000000  0.74442217  0.36356331  1
  Li  Li3  1  0.00000000  0.25557783  0.88643669  1
  Mn  Mn4  1  0.25000000  0.00000000  0.12500000  1
  Mn  Mn5  1  0.75000000  0.00000000  0.12500000  1
  Mn  Mn6  1  0.50000000  0.03486320  0.71012943  1
  Mn  Mn7  1  0.50000000  0.53486320  0.03987057  1
  Mn  Mn8  1  0.75000000  0.50000000  0.62500000  1
  Mn  Mn9  1  0.25000000  0.50000000  0.62500000  1
  Mn  Mn10  1  0.00000000  0.96513680  0.53987057  1
  Mn  Mn11  1  0.00000000  0.46513680  0.21012943  1
  O  O12  1  0.50000000  0.81275307  0.12901946  1
  O  O13  1  0.00000000  0.18724693  0.12098054  1
  O  O14  1  0.00000000  0.68724693  0.62901946  1
  O  O15  1  0.50000000  0.31275307  0.62098054  1
  F  F16  1  0.50000000  0.24076421  0.13741444  1
  F  F17  1  0.00000000  0.75923579  0.11258556  1
  F  F18  1  0.27480096  0.51308660  0.34400641  1
  F  F19  1  0.72519904  0.51308660  0.34400641  1
  F  F20  1  0.72519904  0.01308660  0.40599359  1
  F  F21  1  0.27480096  0.01308660  0.40599359  1
  F  F22  1  0.00000000  0.25923579  0.63741444  1
  F  F23  1  0.50000000  0.74076421  0.61258556  1
  F  F24  1  0.77480096  0.98691340  0.84400641  1
  F  F25  1  0.22519904  0.98691340  0.84400641  1
  F  F26  1  0.22519904  0.48691340  0.90599359  1
  F  F27  1  0.77480096  0.48691340  0.90599359  1
