# generated using pymatgen
data_Cs3LiCl4
_symmetry_space_group_name_H-M   'P 1'
_cell_length_a   4.35987170
_cell_length_b   6.89043612
_cell_length_c   10.13367540
_cell_angle_alpha   90.01633818
_cell_angle_beta   89.99717875
_cell_angle_gamma   108.42470302
_symmetry_Int_Tables_number   1
_chemical_formula_structural   Cs3LiCl4
_chemical_formula_sum   'Cs3 Li1 Cl4'
_cell_volume   288.82482952
_cell_formula_units_Z   1
loop_
 _symmetry_equiv_pos_site_id
 _symmetry_equiv_pos_as_xyz
  1  'x, y, z'
loop_
 _atom_site_type_symbol
 _atom_site_label
 _atom_site_symmetry_multiplicity
 _atom_site_fract_x
 _atom_site_fract_y
 _atom_site_fract_z
 _atom_site_occupancy
  Cs  Cs0  1  0.31470720  0.64106103  0.26961780  1
  Cs  Cs1  1  0.08421042  0.18289336  0.99951268  1
  Cs  Cs2  1  0.31826977  0.64130235  0.72965395  1
  Li  Li3  1  0.53802403  0.08116740  0.49991947  1
  Cl  Cl4  1  0.82368967  0.65575704  0.99935632  1
  Cl  Cl5  1  0.59927152  0.21131738  0.28025209  1
  Cl  Cl6  1  0.92662361  0.86142387  0.50016108  1
  Cl  Cl7  1  0.60252578  0.21179756  0.71961363  1
