# generated using pymatgen
data_Li3V2(CO3)4
_symmetry_space_group_name_H-M   'P 1'
_cell_length_a   5.39875501
_cell_length_b   6.49784113
_cell_length_c   8.50335180
_cell_angle_alpha   83.75699306
_cell_angle_beta   72.92969105
_cell_angle_gamma   66.10799683
_symmetry_Int_Tables_number   1
_chemical_formula_structural   Li3V2(CO3)4
_chemical_formula_sum   'Li3 V2 C4 O12'
_cell_volume   260.70558234
_cell_formula_units_Z   1
loop_
 _symmetry_equiv_pos_site_id
 _symmetry_equiv_pos_as_xyz
  1  'x, y, z'
loop_
 _atom_site_type_symbol
 _atom_site_label
 _atom_site_symmetry_multiplicity
 _atom_site_fract_x
 _atom_site_fract_y
 _atom_site_fract_z
 _atom_site_occupancy
  Li  Li0  1  0.23682265  0.54497408  0.16503402  1
  Li  Li1  1  0.15307066  0.06069767  0.32352586  1
  Li  Li2  1  0.53260772  0.93691549  0.68997251  1
  V  V3  1  0.88260761  0.99454802  0.99711483  1
  V  V4  1  0.63302623  0.50471689  0.50822471  1
  C  C5  1  0.75190580  0.39834569  0.20470209  1
  C  C6  1  0.71560105  0.88911461  0.30534700  1
  C  C7  1  0.91098853  0.11276119  0.69775531  1
  C  C8  1  0.34864723  0.60360998  0.79524643  1
  O  O9  1  0.78777631  0.33315266  0.06236284  1
  O  O10  1  0.96626908  0.89151237  0.25055000  1
  O  O11  1  0.55750749  0.95367417  0.20656554  1
  O  O12  1  0.95293983  0.40230688  0.26147876  1
  O  O13  1  0.50198890  0.46471725  0.31327168  1
  O  O14  1  0.62635775  0.82194542  0.45366328  1
  O  O15  1  0.89732030  0.19139869  0.54924720  1
  O  O16  1  0.60160801  0.60531240  0.74564605  1
  O  O17  1  0.26627785  0.55779828  0.67764332  1
  O  O18  1  0.70121727  0.07298453  0.79555120  1
  O  O19  1  0.12605656  0.07108465  0.74920021  1
  O  O20  1  0.19282318  0.64888508  0.94338616  1
