# generated using pymatgen
data_LaTaO4
_symmetry_space_group_name_H-M   'P 1'
_cell_length_a   3.97329108
_cell_length_b   5.66807118
_cell_length_c   7.75278229
_cell_angle_alpha   90.00000000
_cell_angle_beta   104.84762857
_cell_angle_gamma   90.00000000
_symmetry_Int_Tables_number   1
_chemical_formula_structural   LaTaO4
_chemical_formula_sum   'La2 Ta2 O8'
_cell_volume   168.76985172
_cell_formula_units_Z   2
loop_
 _symmetry_equiv_pos_site_id
 _symmetry_equiv_pos_as_xyz
  1  'x, y, z'
loop_
 _atom_site_type_symbol
 _atom_site_label
 _atom_site_symmetry_multiplicity
 _atom_site_fract_x
 _atom_site_fract_y
 _atom_site_fract_z
 _atom_site_occupancy
  O  O0  1  0.91147013  0.75169305  0.82294025  1
  O  O1  1  0.08852987  0.25169305  0.17705975  1
  O  O2  1  0.47128788  0.05596782  0.94257577  1
  O  O3  1  0.52871212  0.55596782  0.05742423  1
  O  O4  1  0.69859659  0.42574759  0.39719319  1
  O  O5  1  0.30140341  0.92574759  0.60280681  1
  O  O6  1  0.66359752  0.94869937  0.32719505  1
  O  O7  1  0.33640248  0.44869937  0.67280495  1
  La  La8  1  0.82448154  0.16779249  0.64896307  1
  La  La9  1  0.17551846  0.66779249  0.35103693  1
  Ta  Ta10  1  0.58462764  0.21669967  0.16925527  1
  Ta  Ta11  1  0.41537236  0.71669967  0.83074473  1
