# generated using pymatgen
data_CaGeN2
_symmetry_space_group_name_H-M   'P 1'
_cell_length_a   5.30921777
_cell_length_b   5.30921777
_cell_length_c   5.30921777
_cell_angle_alpha   93.02512767
_cell_angle_beta   118.26908393
_cell_angle_gamma   118.26908384
_symmetry_Int_Tables_number   1
_chemical_formula_structural   CaGeN2
_chemical_formula_sum   'Ca2 Ge2 N4'
_cell_volume   108.42727904
_cell_formula_units_Z   2
loop_
 _symmetry_equiv_pos_site_id
 _symmetry_equiv_pos_as_xyz
  1  'x, y, z'
loop_
 _atom_site_type_symbol
 _atom_site_label
 _atom_site_symmetry_multiplicity
 _atom_site_fract_x
 _atom_site_fract_y
 _atom_site_fract_z
 _atom_site_occupancy
  N  N0  1  0.57795561  0.87500000  0.95295561  1
  N  N1  1  0.92204439  0.04704439  0.62500000  1
  N  N2  1  0.42204439  0.37500000  0.29704439  1
  N  N3  1  0.07795561  0.70295561  0.12500000  1
  Ca  Ca4  1  0.50000000  0.25000000  0.75000000  1
  Ca  Ca5  1  0.00000000  0.50000000  0.50000000  1
  Ge  Ge6  1  0.00000000  0.00000000  0.00000000  1
  Ge  Ge7  1  0.50000000  0.75000000  0.25000000  1
