# generated using pymatgen
data_LiZnPO4
_symmetry_space_group_name_H-M   'P 1'
_cell_length_a   5.03622066
_cell_length_b   6.77431890
_cell_length_c   10.17240208
_cell_angle_alpha   90.00000000
_cell_angle_beta   90.00000000
_cell_angle_gamma   90.00000000
_symmetry_Int_Tables_number   1
_chemical_formula_structural   LiZnPO4
_chemical_formula_sum   'Li4 Zn4 P4 O16'
_cell_volume   347.05148371
_cell_formula_units_Z   4
loop_
 _symmetry_equiv_pos_site_id
 _symmetry_equiv_pos_as_xyz
  1  'x, y, z'
loop_
 _atom_site_type_symbol
 _atom_site_label
 _atom_site_symmetry_multiplicity
 _atom_site_fract_x
 _atom_site_fract_y
 _atom_site_fract_z
 _atom_site_occupancy
  Li  Li0  1  0.18618163  0.71372205  0.65346700  1
  Li  Li1  1  0.68618163  0.21372205  0.84653300  1
  Li  Li2  1  0.81381837  0.21372205  0.34653300  1
  Li  Li3  1  0.31381837  0.71372205  0.15346700  1
  Zn  Zn4  1  0.81388797  0.71304440  0.34539815  1
  Zn  Zn5  1  0.18611203  0.21304440  0.65460185  1
  Zn  Zn6  1  0.68611203  0.71304440  0.84539815  1
  Zn  Zn7  1  0.31388797  0.21304440  0.15460185  1
  P  P8  1  0.81567225  0.46300492  0.09449463  1
  P  P9  1  0.31567225  0.96300492  0.40550537  1
  P  P10  1  0.18432775  0.96300492  0.90550537  1
  P  P11  1  0.68432775  0.46300492  0.59449463  1
  O  O12  1  0.19992351  0.77297651  0.34106600  1
  O  O13  1  0.29984418  0.15102875  0.83876233  1
  O  O14  1  0.69992351  0.27297651  0.15893400  1
  O  O15  1  0.79984418  0.65102875  0.66123767  1
  O  O16  1  0.75697012  0.46619796  0.44610873  1
  O  O17  1  0.12206131  0.46102542  0.11538859  1
  O  O18  1  0.20015582  0.15102875  0.33876233  1
  O  O19  1  0.80007649  0.27297651  0.65893400  1
  O  O20  1  0.37793869  0.46102542  0.61538859  1
  O  O21  1  0.87793869  0.96102542  0.88461141  1
  O  O22  1  0.25697012  0.96619796  0.05389127  1
  O  O23  1  0.70015582  0.65102875  0.16123767  1
  O  O24  1  0.74302988  0.46619796  0.94610873  1
  O  O25  1  0.62206131  0.96102542  0.38461141  1
  O  O26  1  0.24302988  0.96619796  0.55389127  1
  O  O27  1  0.30007649  0.77297651  0.84106600  1
