# generated using pymatgen
data_LiCrSiO4
_symmetry_space_group_name_H-M   'P 1'
_cell_length_a   4.77272067
_cell_length_b   5.77062930
_cell_length_c   10.19351545
_cell_angle_alpha   90.00000000
_cell_angle_beta   89.99994092
_cell_angle_gamma   90.00000000
_symmetry_Int_Tables_number   1
_chemical_formula_structural   LiCrSiO4
_chemical_formula_sum   'Li4 Cr4 Si4 O16'
_cell_volume   280.74574284
_cell_formula_units_Z   4
loop_
 _symmetry_equiv_pos_site_id
 _symmetry_equiv_pos_as_xyz
  1  'x, y, z'
loop_
 _atom_site_type_symbol
 _atom_site_label
 _atom_site_symmetry_multiplicity
 _atom_site_fract_x
 _atom_site_fract_y
 _atom_site_fract_z
 _atom_site_occupancy
  Li  Li0  1  0.00053823  0.25585949  0.50005898  1
  Li  Li1  1  0.49946183  0.25585981  0.00005945  1
  Li  Li2  1  0.50053817  0.75585981  0.99994055  1
  Li  Li3  1  0.99946177  0.75585949  0.49994102  1
  Cr  Cr4  1  0.99967508  0.00674270  0.23120691  1
  Cr  Cr5  1  0.50034539  0.00675269  0.73120483  1
  Cr  Cr6  1  0.49965461  0.50675269  0.26879517  1
  Cr  Cr7  1  0.00032492  0.50674270  0.76879309  1
  Si  Si8  1  0.05763170  0.50667027  0.09230642  1
  Si  Si9  1  0.44237397  0.50667294  0.59230499  1
  Si  Si10  1  0.55762603  0.00667294  0.40769501  1
  Si  Si11  1  0.94236830  0.00667027  0.90769358  1
  O  O12  1  0.18849709  0.50667164  0.94440477  1
  O  O13  1  0.21964783  0.28917503  0.17155043  1
  O  O14  1  0.21940680  0.72428020  0.17153241  1
  O  O15  1  0.21867528  0.00629289  0.40044842  1
  O  O16  1  0.28132267  0.00629658  0.90045811  1
  O  O17  1  0.28058999  0.72428225  0.67153851  1
  O  O18  1  0.28034518  0.28917229  0.67155458  1
  O  O19  1  0.31151186  0.50667122  0.44439727  1
  O  O20  1  0.68848814  0.00667122  0.55560273  1
  O  O21  1  0.71965482  0.78917229  0.32844542  1
  O  O22  1  0.71941001  0.22428225  0.32846149  1
  O  O23  1  0.71867733  0.50629658  0.09954189  1
  O  O24  1  0.78132472  0.50629289  0.59955158  1
  O  O25  1  0.78059320  0.22428020  0.82846759  1
  O  O26  1  0.78035217  0.78917503  0.82844957  1
  O  O27  1  0.81150291  0.00667164  0.05559523  1
