# generated using pymatgen
data_LiCrSiO4
_symmetry_space_group_name_H-M   'P 1'
_cell_length_a   4.74156827
_cell_length_b   6.15546778
_cell_length_c   10.28580504
_cell_angle_alpha   90.00000000
_cell_angle_beta   90.00000000
_cell_angle_gamma   90.00000000
_symmetry_Int_Tables_number   1
_chemical_formula_structural   LiCrSiO4
_chemical_formula_sum   'Li4 Cr4 Si4 O16'
_cell_volume   300.20737614
_cell_formula_units_Z   4
loop_
 _symmetry_equiv_pos_site_id
 _symmetry_equiv_pos_as_xyz
  1  'x, y, z'
loop_
 _atom_site_type_symbol
 _atom_site_label
 _atom_site_symmetry_multiplicity
 _atom_site_fract_x
 _atom_site_fract_y
 _atom_site_fract_z
 _atom_site_occupancy
  Li  Li0  1  0.01756608  0.00522331  0.21527358  1
  Li  Li1  1  0.48243392  0.00522331  0.71527358  1
  Li  Li2  1  0.51756608  0.50522331  0.28472642  1
  Li  Li3  1  0.98243392  0.50522331  0.78472642  1
  Cr  Cr4  1  0.99991961  0.25660009  0.50015767  1
  Cr  Cr5  1  0.50008039  0.25660009  0.00015767  1
  Cr  Cr6  1  0.49991961  0.75660009  0.99984233  1
  Cr  Cr7  1  0.00008039  0.75660009  0.49984233  1
  Si  Si8  1  0.08101380  0.50669736  0.09062600  1
  Si  Si9  1  0.41898620  0.50669736  0.59062600  1
  Si  Si10  1  0.58101380  0.00669736  0.40937400  1
  Si  Si11  1  0.91898620  0.00669736  0.90937400  1
  O  O12  1  0.25038872  0.50650663  0.94307238  1
  O  O13  1  0.22197177  0.28481037  0.15018220  1
  O  O14  1  0.22131625  0.72916885  0.14961357  1
  O  O15  1  0.23447274  0.00669339  0.41934229  1
  O  O16  1  0.26552726  0.00669339  0.91934229  1
  O  O17  1  0.27868375  0.72916885  0.64961357  1
  O  O18  1  0.27802823  0.28481037  0.65018220  1
  O  O19  1  0.24961128  0.50650663  0.44307238  1
  O  O20  1  0.75038872  0.00650663  0.55692762  1
  O  O21  1  0.72197177  0.78481037  0.34981780  1
  O  O22  1  0.72131625  0.22916885  0.35038643  1
  O  O23  1  0.73447274  0.50669339  0.08065771  1
  O  O24  1  0.76552726  0.50669339  0.58065771  1
  O  O25  1  0.77868375  0.22916885  0.85038643  1
  O  O26  1  0.77802823  0.78481037  0.84981780  1
  O  O27  1  0.74961128  0.00650663  0.05692762  1
