# generated using pymatgen
data_Na6ZnSe4
_symmetry_space_group_name_H-M   'P 1'
_cell_length_a   7.23875494
_cell_length_b   9.38361007
_cell_length_c   9.38361007
_cell_angle_alpha   120.00056468
_cell_angle_beta   90.00000000
_cell_angle_gamma   90.00000000
_symmetry_Int_Tables_number   1
_chemical_formula_structural   Na6ZnSe4
_chemical_formula_sum   'Na12 Zn2 Se8'
_cell_volume   551.99092801
_cell_formula_units_Z   2
loop_
 _symmetry_equiv_pos_site_id
 _symmetry_equiv_pos_as_xyz
  1  'x, y, z'
loop_
 _atom_site_type_symbol
 _atom_site_label
 _atom_site_symmetry_multiplicity
 _atom_site_fract_x
 _atom_site_fract_y
 _atom_site_fract_z
 _atom_site_occupancy
  Na  Na0  1  0.96123949  0.14820180  0.85179820  1
  Na  Na1  1  0.96124210  0.70358493  0.85178807  1
  Na  Na2  1  0.96124210  0.14821193  0.29641507  1
  Na  Na3  1  0.46123949  0.85179820  0.14820180  1
  Na  Na4  1  0.46124210  0.29641507  0.14821193  1
  Na  Na5  1  0.46124210  0.85178807  0.70358493  1
  Na  Na6  1  0.13406926  0.53065798  0.46934202  1
  Na  Na7  1  0.13406465  0.93868509  0.46934368  1
  Na  Na8  1  0.13406465  0.53065632  0.06131491  1
  Na  Na9  1  0.63406926  0.46934202  0.53065798  1
  Na  Na10  1  0.63406465  0.06131491  0.53065632  1
  Na  Na11  1  0.63406465  0.46934368  0.93868509  1
  Zn  Zn12  1  0.25264402  0.33332018  0.66667982  1
  Zn  Zn13  1  0.75264402  0.66667982  0.33332018  1
  Se  Se14  1  0.90481697  0.33332457  0.66667543  1
  Se  Se15  1  0.40481697  0.66667543  0.33332457  1
  Se  Se16  1  0.35904218  0.18649986  0.81350014  1
  Se  Se17  1  0.35903729  0.62698473  0.81349044  1
  Se  Se18  1  0.35903729  0.18650956  0.37301527  1
  Se  Se19  1  0.85904218  0.81350014  0.18649986  1
  Se  Se20  1  0.85903729  0.37301527  0.18650956  1
  Se  Se21  1  0.85903729  0.81349044  0.62698473  1
