# generated using pymatgen
data_Hf3N4
_symmetry_space_group_name_H-M   'P 1'
_cell_length_a   5.81544817
_cell_length_b   5.81544817
_cell_length_c   5.81544817
_cell_angle_alpha   109.47122059
_cell_angle_beta   109.47122059
_cell_angle_gamma   109.47122068
_symmetry_Int_Tables_number   1
_chemical_formula_structural   Hf3N4
_chemical_formula_sum   'Hf6 N8'
_cell_volume   151.40062855
_cell_formula_units_Z   2
loop_
 _symmetry_equiv_pos_site_id
 _symmetry_equiv_pos_as_xyz
  1  'x, y, z'
loop_
 _atom_site_type_symbol
 _atom_site_label
 _atom_site_symmetry_multiplicity
 _atom_site_fract_x
 _atom_site_fract_y
 _atom_site_fract_z
 _atom_site_occupancy
  N  N0  1  0.63366641  0.63366641  0.63366641  1
  N  N1  1  0.36633359  0.50000000  0.00000000  1
  N  N2  1  0.50000000  0.00000000  0.36633359  1
  N  N3  1  0.00000000  0.36633359  0.50000000  1
  N  N4  1  0.50000000  0.00000000  0.86633359  1
  N  N5  1  0.00000000  0.86633359  0.50000000  1
  N  N6  1  0.13366641  0.13366641  0.13366641  1
  N  N7  1  0.86633359  0.50000000  0.00000000  1
  Hf  Hf8  1  0.75000000  0.87500000  0.12500000  1
  Hf  Hf9  1  0.62500000  0.37500000  0.25000000  1
  Hf  Hf10  1  0.87500000  0.12500000  0.75000000  1
  Hf  Hf11  1  0.12500000  0.75000000  0.87500000  1
  Hf  Hf12  1  0.37500000  0.25000000  0.62500000  1
  Hf  Hf13  1  0.25000000  0.62500000  0.37500000  1
