# generated using pymatgen
data_NaH9O5
_symmetry_space_group_name_H-M   'P 1'
_cell_length_a   8.10098782
_cell_length_b   8.16495621
_cell_length_c   9.99610155
_cell_angle_alpha   59.32629486
_cell_angle_beta   120.52779523
_cell_angle_gamma   148.87116139
_symmetry_Int_Tables_number   1
_chemical_formula_structural   NaH9O5
_chemical_formula_sum   'Na2 H18 O10'
_cell_volume   290.18422504
_cell_formula_units_Z   2
loop_
 _symmetry_equiv_pos_site_id
 _symmetry_equiv_pos_as_xyz
  1  'x, y, z'
loop_
 _atom_site_type_symbol
 _atom_site_label
 _atom_site_symmetry_multiplicity
 _atom_site_fract_x
 _atom_site_fract_y
 _atom_site_fract_z
 _atom_site_occupancy
  Na  Na0  1  0.53014932  0.45354459  0.77560501  1
  Na  Na1  1  0.49836022  0.58840765  0.15534249  1
  H  H2  1  0.62986700  0.96925984  0.76012230  1
  H  H3  1  0.38521662  0.86325526  0.35167539  1
  H  H4  1  0.01940338  0.66898771  0.24803941  1
  H  H5  1  0.93891363  0.45602312  0.97189866  1
  H  H6  1  0.73321007  0.25251619  0.83571690  1
  H  H7  1  0.28050466  0.74996173  0.15775237  1
  H  H8  1  0.46675720  0.95805642  0.01545484  1
  H  H9  1  0.24880246  0.46221876  0.83881962  1
  H  H10  1  0.45813880  0.19998615  0.18984718  1
  H  H11  1  0.54326749  0.46647792  0.02843272  1
  H  H12  1  0.95814192  0.98210318  0.76926294  1
  H  H13  1  0.05137713  0.87234890  0.64455949  1
  H  H14  1  0.94534773  0.10026129  0.31104992  1
  H  H15  1  0.05292317  0.97792081  0.38435534  1
  H  H16  1  0.96038582  0.61863331  0.61840263  1
  H  H17  1  0.47466208  0.04719162  0.64388001  1
  H  H18  1  0.87706012  0.06286207  0.52327801  1
  H  H19  1  0.92298506  0.31747466  0.39855842  1
  O  O20  1  0.69015030  0.15644274  0.69959365  1
  O  O21  1  0.20995232  0.81185022  0.32793144  1
  O  O22  1  0.71950297  0.29148870  0.90855635  1
  O  O23  1  0.30164184  0.73233439  0.08021238  1
  O  O24  1  0.47727715  0.61383844  0.88295635  1
  O  O25  1  0.63462631  0.41912956  0.13294524  1
  O  O26  1  0.00074058  0.99642093  0.68574910  1
  O  O27  1  0.00987125  0.06291913  0.28047351  1
  O  O28  1  0.09594798  0.84162812  0.58745388  1
  O  O29  1  0.80708641  0.11149261  0.40532247  1
