# generated using pymatgen
data_LiCrSiO4
_symmetry_space_group_name_H-M   'P 1'
_cell_length_a   5.74938790
_cell_length_b   5.74938790
_cell_length_c   5.54361387
_cell_angle_alpha   118.82294571
_cell_angle_beta   61.17705429
_cell_angle_gamma   117.86327909
_symmetry_Int_Tables_number   1
_chemical_formula_structural   LiCrSiO4
_chemical_formula_sum   'Li2 Cr2 Si2 O8'
_cell_volume   133.90502744
_cell_formula_units_Z   2
loop_
 _symmetry_equiv_pos_site_id
 _symmetry_equiv_pos_as_xyz
  1  'x, y, z'
loop_
 _atom_site_type_symbol
 _atom_site_label
 _atom_site_symmetry_multiplicity
 _atom_site_fract_x
 _atom_site_fract_y
 _atom_site_fract_z
 _atom_site_occupancy
  Li  Li0  1  0.99651688  0.00348312  0.00348312  1
  Li  Li1  1  0.25348312  0.74651688  0.24651688  1
  Cr  Cr2  1  0.62500000  0.87500000  0.62500000  1
  Cr  Cr3  1  0.12500000  0.37500000  0.62500000  1
  Si  Si4  1  0.62500000  0.37500000  0.62500000  1
  Si  Si5  1  0.62500000  0.37500000  0.12500000  1
  O  O6  1  0.84350150  0.15649850  0.89484939  1
  O  O7  1  0.84350150  0.15649850  0.41814762  1
  O  O8  1  0.42080823  0.16494730  0.87206953  1
  O  O9  1  0.83505270  0.57919177  0.87206953  1
  O  O10  1  0.41494730  0.17080823  0.37793047  1
  O  O11  1  0.82919177  0.58505270  0.37793047  1
  O  O12  1  0.40649850  0.59350150  0.35515061  1
  O  O13  1  0.40649850  0.59350150  0.83185238  1
