# generated using pymatgen
data_Tm2TeO6
_symmetry_space_group_name_H-M   'P 1'
_cell_length_a   5.23971330
_cell_length_b   9.02735252
_cell_length_c   9.89223986
_cell_angle_alpha   90.00000000
_cell_angle_beta   90.00000000
_cell_angle_gamma   90.00000000
_symmetry_Int_Tables_number   1
_chemical_formula_structural   Tm2TeO6
_chemical_formula_sum   'Tm8 Te4 O24'
_cell_volume   467.91025636
_cell_formula_units_Z   4
loop_
 _symmetry_equiv_pos_site_id
 _symmetry_equiv_pos_as_xyz
  1  'x, y, z'
loop_
 _atom_site_type_symbol
 _atom_site_label
 _atom_site_symmetry_multiplicity
 _atom_site_fract_x
 _atom_site_fract_y
 _atom_site_fract_z
 _atom_site_occupancy
  Tm  Tm0  1  0.02263862  0.39696513  0.04072150  1
  Tm  Tm1  1  0.03764695  0.28228757  0.63537128  1
  Tm  Tm2  1  0.46235305  0.71771243  0.13537128  1
  Tm  Tm3  1  0.47736138  0.60303487  0.54072150  1
  Tm  Tm4  1  0.52263862  0.10303487  0.95927850  1
  Tm  Tm5  1  0.53764695  0.21771243  0.36462872  1
  Tm  Tm6  1  0.96235305  0.78228757  0.86462872  1
  Tm  Tm7  1  0.97736138  0.89696513  0.45927850  1
  Te  Te8  1  0.03972341  0.00606851  0.14548296  1
  Te  Te9  1  0.46027659  0.99393149  0.64548296  1
  Te  Te10  1  0.53972341  0.49393149  0.85451704  1
  Te  Te11  1  0.96027659  0.50606851  0.35451704  1
  O  O12  1  0.08555855  0.65715200  0.47599899  1
  O  O13  1  0.17436925  0.55008977  0.20237546  1
  O  O14  1  0.18815530  0.85803403  0.26140190  1
  O  O15  1  0.17790216  0.85681929  0.67729488  1
  O  O16  1  0.23285394  0.38459381  0.43600096  1
  O  O17  1  0.24883026  0.91418956  0.00224845  1
  O  O18  1  0.25116974  0.08581044  0.50224845  1
  O  O19  1  0.26714606  0.61540619  0.93600096  1
  O  O20  1  0.32209784  0.14318071  0.17729488  1
  O  O21  1  0.31184470  0.14196597  0.76140190  1
  O  O22  1  0.32563075  0.44991023  0.70237546  1
  O  O23  1  0.41444145  0.34284800  0.97599899  1
  O  O24  1  0.58555855  0.84284800  0.52400101  1
  O  O25  1  0.67436925  0.94991023  0.79762454  1
  O  O26  1  0.68815530  0.64196597  0.73859810  1
  O  O27  1  0.67790216  0.64318071  0.32270512  1
  O  O28  1  0.73285394  0.11540619  0.56399904  1
  O  O29  1  0.74883026  0.58581044  0.99775155  1
  O  O30  1  0.75116974  0.41418956  0.49775155  1
  O  O31  1  0.76714606  0.88459381  0.06399904  1
  O  O32  1  0.82209784  0.35681929  0.82270512  1
  O  O33  1  0.81184470  0.35803403  0.23859810  1
  O  O34  1  0.82563075  0.05008977  0.29762454  1
  O  O35  1  0.91444145  0.15715200  0.02400101  1
