# generated using pymatgen
data_KNaSnF6
_symmetry_space_group_name_H-M   'P 1'
_cell_length_a   6.09858009
_cell_length_b   8.28165301
_cell_length_c   12.03060589
_cell_angle_alpha   90.00000000
_cell_angle_beta   90.00000000
_cell_angle_gamma   90.00000000
_symmetry_Int_Tables_number   1
_chemical_formula_structural   KNaSnF6
_chemical_formula_sum   'K4 Na4 Sn4 F24'
_cell_volume   607.62168091
_cell_formula_units_Z   4
loop_
 _symmetry_equiv_pos_site_id
 _symmetry_equiv_pos_as_xyz
  1  'x, y, z'
loop_
 _atom_site_type_symbol
 _atom_site_label
 _atom_site_symmetry_multiplicity
 _atom_site_fract_x
 _atom_site_fract_y
 _atom_site_fract_z
 _atom_site_occupancy
  K  K0  1  0.03762353  0.75554810  0.45778009  1
  K  K1  1  0.53762353  0.25554810  0.04221991  1
  K  K2  1  0.46237647  0.75554810  0.95778009  1
  K  K3  1  0.96237647  0.25554810  0.54221991  1
  Na  Na4  1  0.44705237  0.50113005  0.64883541  1
  Na  Na5  1  0.55294763  1.00113005  0.35116459  1
  Na  Na6  1  0.94705237  1.00113005  0.85116459  1
  Na  Na7  1  0.05294763  0.50113005  0.14883541  1
  Sn  Sn8  1  0.45143234  0.99965584  0.63701953  1
  Sn  Sn9  1  0.04856766  0.99965584  0.13701953  1
  Sn  Sn10  1  0.54856766  0.49965584  0.36298047  1
  Sn  Sn11  1  0.95143234  0.49965584  0.86298047  1
  F  F12  1  0.64648041  0.26976880  0.37252410  1
  F  F13  1  0.16938803  0.06327515  0.70959116  1
  F  F14  1  0.77914225  0.95808043  0.04342402  1
  F  F15  1  0.45157187  0.73099810  0.35887102  1
  F  F16  1  0.35351959  0.76976880  0.62747590  1
  F  F17  1  0.54842813  0.23099810  0.64112898  1
  F  F18  1  0.10089347  0.45531864  0.71812597  1
  F  F19  1  0.27914225  0.45808043  0.45657598  1
  F  F20  1  0.70942591  0.53632490  0.50858102  1
  F  F21  1  0.66938803  0.56327515  0.79040884  1
  F  F22  1  0.39910653  0.45531864  0.21812597  1
  F  F23  1  0.89910653  0.95531864  0.28187403  1
  F  F24  1  0.22085775  0.45808043  0.95657598  1
  F  F25  1  0.72085775  0.95808043  0.54342402  1
  F  F26  1  0.20942591  0.03632490  0.99141898  1
  F  F27  1  0.95157187  0.23099810  0.14112898  1
  F  F28  1  0.79057409  0.53632490  0.00858102  1
  F  F29  1  0.83061197  0.56327515  0.29040884  1
  F  F30  1  0.04842813  0.73099810  0.85887102  1
  F  F31  1  0.33061197  0.06327515  0.20959116  1
  F  F32  1  0.29057409  0.03632490  0.49141898  1
  F  F33  1  0.85351959  0.26976880  0.87252410  1
  F  F34  1  0.60089347  0.95531864  0.78187403  1
  F  F35  1  0.14648041  0.76976880  0.12747590  1
