# generated using pymatgen
data_Te(HO)6
_symmetry_space_group_name_H-M   'P 1'
_cell_length_a   5.56749974
_cell_length_b   5.77860831
_cell_length_c   5.58280701
_cell_angle_alpha   61.48384398
_cell_angle_beta   62.85082480
_cell_angle_gamma   60.26552483
_symmetry_Int_Tables_number   1
_chemical_formula_structural   Te(HO)6
_chemical_formula_sum   'Te1 H6 O6'
_cell_volume   131.24753551
_cell_formula_units_Z   1
loop_
 _symmetry_equiv_pos_site_id
 _symmetry_equiv_pos_as_xyz
  1  'x, y, z'
loop_
 _atom_site_type_symbol
 _atom_site_label
 _atom_site_symmetry_multiplicity
 _atom_site_fract_x
 _atom_site_fract_y
 _atom_site_fract_z
 _atom_site_occupancy
  Te  Te0  1  0.01138087  0.00028744  0.99588592  1
  H  H1  1  0.19075763  0.78024065  0.62575616  1
  H  H2  1  0.37547861  0.22102531  0.81693197  1
  H  H3  1  0.37437126  0.57709238  0.23451333  1
  H  H4  1  0.80523011  0.20515945  0.39036587  1
  H  H5  1  0.61096508  0.81477845  0.20172337  1
  H  H6  1  0.74734530  0.42609213  0.65938461  1
  O  O7  1  0.26062514  0.74223599  0.77861091  1
  O  O8  1  0.22329592  0.25447704  0.74782071  1
  O  O9  1  0.27543908  0.77438465  0.23515648  1
  O  O10  1  0.75345977  0.25366519  0.22046656  1
  O  O11  1  0.78984119  0.75284116  0.24779795  1
  O  O12  1  0.76242505  0.22566116  0.74130817  1
