# generated using pymatgen
data_Si3N4
_symmetry_space_group_name_H-M   'P 1'
_cell_length_a   7.66030722
_cell_length_b   7.66030722
_cell_length_c   2.92508486
_cell_angle_alpha   90.00000000
_cell_angle_beta   90.00000000
_cell_angle_gamma   120.00000001
_symmetry_Int_Tables_number   1
_chemical_formula_structural   Si3N4
_chemical_formula_sum   'Si6 N8'
_cell_volume   148.64882360
_cell_formula_units_Z   2
loop_
 _symmetry_equiv_pos_site_id
 _symmetry_equiv_pos_as_xyz
  1  'x, y, z'
loop_
 _atom_site_type_symbol
 _atom_site_label
 _atom_site_symmetry_multiplicity
 _atom_site_fract_x
 _atom_site_fract_y
 _atom_site_fract_z
 _atom_site_occupancy
  N  N0  1  0.33333333  0.66666667  0.75000000  1
  N  N1  1  0.66666667  0.33333333  0.25000000  1
  N  N2  1  0.96932123  0.67005664  0.75000000  1
  N  N3  1  0.29926458  0.96932123  0.25000000  1
  N  N4  1  0.67005664  0.70073542  0.25000000  1
  N  N5  1  0.32994336  0.29926458  0.75000000  1
  N  N6  1  0.03067877  0.32994336  0.25000000  1
  N  N7  1  0.70073542  0.03067877  0.75000000  1
  Si  Si8  1  0.23124399  0.82513709  0.75000000  1
  Si  Si9  1  0.40610691  0.23124399  0.25000000  1
  Si  Si10  1  0.82513709  0.59389309  0.25000000  1
  Si  Si11  1  0.17486291  0.40610691  0.75000000  1
  Si  Si12  1  0.59389309  0.76875601  0.75000000  1
  Si  Si13  1  0.76875601  0.17486291  0.25000000  1
