# generated using pymatgen
data_Ca3AlN3
_symmetry_space_group_name_H-M   'P 1'
_cell_length_a   6.13890870
_cell_length_b   6.90248092
_cell_length_c   9.85525407
_cell_angle_alpha   93.78924909
_cell_angle_beta   90.00000000
_cell_angle_gamma   90.00000000
_symmetry_Int_Tables_number   1
_chemical_formula_structural   Ca3AlN3
_chemical_formula_sum   'Ca12 Al4 N12'
_cell_volume   416.69065205
_cell_formula_units_Z   4
loop_
 _symmetry_equiv_pos_site_id
 _symmetry_equiv_pos_as_xyz
  1  'x, y, z'
loop_
 _atom_site_type_symbol
 _atom_site_label
 _atom_site_symmetry_multiplicity
 _atom_site_fract_x
 _atom_site_fract_y
 _atom_site_fract_z
 _atom_site_occupancy
  N  N0  1  0.56834474  0.66101203  0.82301932  1
  N  N1  1  0.06834474  0.33898797  0.67698068  1
  N  N2  1  0.43165526  0.33898797  0.17698068  1
  N  N3  1  0.93165526  0.66101203  0.32301932  1
  N  N4  1  0.62337239  0.25927512  0.52887282  1
  N  N5  1  0.12337239  0.74072488  0.97112718  1
  N  N6  1  0.37662761  0.74072488  0.47112718  1
  N  N7  1  0.87662761  0.25927512  0.02887282  1
  N  N8  1  0.53784825  0.89607028  0.11765912  1
  N  N9  1  0.03784825  0.10392972  0.38234088  1
  N  N10  1  0.46215175  0.10392972  0.88234088  1
  N  N11  1  0.96215175  0.89607028  0.61765912  1
  Al  Al12  1  0.90887449  0.16018114  0.56030172  1
  Al  Al13  1  0.40887449  0.83981886  0.93969828  1
  Al  Al14  1  0.09112551  0.83981886  0.43969828  1
  Al  Al15  1  0.59112551  0.16018114  0.06030172  1
  Ca  Ca16  1  0.78198596  0.35408615  0.30579615  1
  Ca  Ca17  1  0.28198596  0.64591385  0.19420385  1
  Ca  Ca18  1  0.21801404  0.64591385  0.69420385  1
  Ca  Ca19  1  0.71801404  0.35408615  0.80579615  1
  Ca  Ca20  1  0.79372369  0.62853707  0.07634976  1
  Ca  Ca21  1  0.29372369  0.37146293  0.42365024  1
  Ca  Ca22  1  0.20627631  0.37146293  0.92365024  1
  Ca  Ca23  1  0.70627631  0.62853707  0.57634976  1
  Ca  Ca24  1  0.64117221  0.92287260  0.34953247  1
  Ca  Ca25  1  0.14117221  0.07712740  0.15046753  1
  Ca  Ca26  1  0.35882779  0.07712740  0.65046753  1
  Ca  Ca27  1  0.85882779  0.92287260  0.84953247  1
