# generated using pymatgen
data_Nb(PS4)2
_symmetry_space_group_name_H-M   'P 1'
_cell_length_a   7.71761279
_cell_length_b   12.27950210
_cell_length_c   12.27950210
_cell_angle_alpha   90.00000000
_cell_angle_beta   90.00000000
_cell_angle_gamma   90.00000000
_symmetry_Int_Tables_number   1
_chemical_formula_structural   Nb(PS4)2
_chemical_formula_sum   'Nb4 P8 S32'
_cell_volume   1163.70928822
_cell_formula_units_Z   4
loop_
 _symmetry_equiv_pos_site_id
 _symmetry_equiv_pos_as_xyz
  1  'x, y, z'
loop_
 _atom_site_type_symbol
 _atom_site_label
 _atom_site_symmetry_multiplicity
 _atom_site_fract_x
 _atom_site_fract_y
 _atom_site_fract_z
 _atom_site_occupancy
  P  P0  1  0.07582674  0.07396595  0.17420022  1
  P  P1  1  0.57582674  0.57396595  0.32579978  1
  P  P2  1  0.57582674  0.42603405  0.67420022  1
  P  P3  1  0.42417326  0.32579978  0.42603405  1
  P  P4  1  0.42417326  0.67420022  0.57396595  1
  P  P5  1  0.07582674  0.92603405  0.82579978  1
  P  P6  1  0.92417326  0.82579978  0.07396595  1
  P  P7  1  0.92417326  0.17420022  0.92603405  1
  S  S8  1  0.48311648  0.05781304  0.55855969  1
  S  S9  1  0.48311648  0.94218696  0.44144031  1
  S  S10  1  0.51688352  0.44144031  0.05781304  1
  S  S11  1  0.51688352  0.55855969  0.94218696  1
  S  S12  1  0.01025960  0.18128142  0.28863943  1
  S  S13  1  0.98974040  0.28863943  0.81871858  1
  S  S14  1  0.98974040  0.71136057  0.18128142  1
  S  S15  1  0.01025960  0.81871858  0.71136057  1
  S  S16  1  0.48974040  0.78863943  0.68128142  1
  S  S17  1  0.48974040  0.21136057  0.31871858  1
  S  S18  1  0.51025960  0.31871858  0.78863943  1
  S  S19  1  0.51025960  0.68128142  0.21136057  1
  S  S20  1  0.15015823  0.14688058  0.02260701  1
  S  S21  1  0.84984177  0.02260701  0.85311942  1
  S  S22  1  0.84984177  0.97739299  0.14688058  1
  S  S23  1  0.15015823  0.85311942  0.97739299  1
  S  S24  1  0.34984177  0.52260701  0.64688058  1
  S  S25  1  0.34984177  0.47739299  0.35311942  1
  S  S26  1  0.65015823  0.35311942  0.52260701  1
  S  S27  1  0.65015823  0.64688058  0.47739299  1
  S  S28  1  0.71235701  0.77578886  0.99259143  1
  S  S29  1  0.01688352  0.94144031  0.44218696  1
  S  S30  1  0.98311648  0.44218696  0.05855969  1
  S  S31  1  0.98311648  0.55781304  0.94144031  1
  S  S32  1  0.01688352  0.05855969  0.55781304  1
  S  S33  1  0.28764299  0.00740857  0.77578886  1
  S  S34  1  0.28764299  0.99259143  0.22421114  1
  S  S35  1  0.71235701  0.22421114  0.00740857  1
  S  S36  1  0.21235701  0.27578886  0.50740857  1
  S  S37  1  0.78764299  0.50740857  0.72421114  1
  S  S38  1  0.78764299  0.49259143  0.27578886  1
  S  S39  1  0.21235701  0.72421114  0.49259143  1
  Nb  Nb40  1  0.25000000  0.91639970  0.58360030  1
  Nb  Nb41  1  0.75000000  0.58360030  0.08360030  1
  Nb  Nb42  1  0.75000000  0.41639970  0.91639970  1
  Nb  Nb43  1  0.25000000  0.08360030  0.41639970  1
