# generated using pymatgen
data_K3NiO2
_symmetry_space_group_name_H-M   'P 1'
_cell_length_a   6.08196802
_cell_length_b   6.08196802
_cell_length_c   14.12218970
_cell_angle_alpha   90.00000000
_cell_angle_beta   90.00000000
_cell_angle_gamma   90.00000000
_symmetry_Int_Tables_number   1
_chemical_formula_structural   K3NiO2
_chemical_formula_sum   'K12 Ni4 O8'
_cell_volume   522.38452788
_cell_formula_units_Z   4
loop_
 _symmetry_equiv_pos_site_id
 _symmetry_equiv_pos_as_xyz
  1  'x, y, z'
loop_
 _atom_site_type_symbol
 _atom_site_label
 _atom_site_symmetry_multiplicity
 _atom_site_fract_x
 _atom_site_fract_y
 _atom_site_fract_z
 _atom_site_occupancy
  K  K0  1  0.48000216  0.02173320  0.62486420  1
  K  K1  1  0.51999784  0.97826680  0.12486420  1
  K  K2  1  0.52173320  0.01999784  0.37486420  1
  K  K3  1  0.47826680  0.98000216  0.87486420  1
  K  K4  1  0.97826680  0.51999784  0.87513580  1
  K  K5  1  0.02173320  0.48000216  0.37513580  1
  K  K6  1  0.01999784  0.52173320  0.62513580  1
  K  K7  1  0.98000216  0.47826680  0.12513580  1
  K  K8  1  0.94904625  0.05095375  0.75000000  1
  K  K9  1  0.05095375  0.94904625  0.25000000  1
  K  K10  1  0.55095375  0.55095375  0.50000000  1
  K  K11  1  0.44904625  0.44904625  -0.00000000  1
  Ni  Ni12  1  0.49512321  0.50487679  0.75000000  1
  Ni  Ni13  1  0.50487679  0.49512321  0.25000000  1
  Ni  Ni14  1  0.00487679  0.00487679  0.50000000  1
  Ni  Ni15  1  0.99512321  0.99512321  -0.00000000  1
  O  O16  1  0.70132717  0.71415804  0.73963893  1
  O  O17  1  0.29867283  0.28584196  0.23963893  1
  O  O18  1  0.21415804  0.79867283  0.48963893  1
  O  O19  1  0.78584196  0.20132717  0.98963893  1
  O  O20  1  0.28584196  0.29867283  0.76036107  1
  O  O21  1  0.71415804  0.70132717  0.26036107  1
  O  O22  1  0.79867283  0.21415804  0.51036107  1
  O  O23  1  0.20132717  0.78584196  0.01036107  1
