# generated using pymatgen
data_Ge7Ir3
_symmetry_space_group_name_H-M   'P 1'
_cell_length_a   7.61908264
_cell_length_b   7.61908261
_cell_length_c   7.61908250
_cell_angle_alpha   109.47121767
_cell_angle_beta   109.47121757
_cell_angle_gamma   109.47122380
_symmetry_Int_Tables_number   1
_chemical_formula_structural   Ge7Ir3
_chemical_formula_sum   'Ge14 Ir6'
_cell_volume   340.47573596
_cell_formula_units_Z   2
loop_
 _symmetry_equiv_pos_site_id
 _symmetry_equiv_pos_as_xyz
  1  'x, y, z'
loop_
 _atom_site_type_symbol
 _atom_site_label
 _atom_site_symmetry_multiplicity
 _atom_site_fract_x
 _atom_site_fract_y
 _atom_site_fract_z
 _atom_site_occupancy
  Ir  Ir0  1  1.00000000  0.33974840  0.33974840  1
  Ir  Ir1  1  0.33974840  1.00000000  0.33974840  1
  Ir  Ir2  1  0.66025160  0.00000000  0.66025160  1
  Ir  Ir3  1  0.66025160  0.66025160  0.00000000  1
  Ir  Ir4  1  0.33974840  0.33974840  1.00000000  1
  Ir  Ir5  1  0.00000000  0.66025160  0.66025160  1
  Ge  Ge6  1  0.50000000  0.75000000  0.25000000  1
  Ge  Ge7  1  0.75000000  0.50000000  0.25000000  1
  Ge  Ge8  1  0.25000000  0.50000000  0.75000000  1
  Ge  Ge9  1  0.75000000  0.25000000  0.50000000  1
  Ge  Ge10  1  0.25000000  0.75000000  0.50000000  1
  Ge  Ge11  1  0.50000000  0.25000000  0.75000000  1
  Ge  Ge12  1  0.33463462  0.33463462  0.33463462  1
  Ge  Ge13  1  0.33463462  1.00000000  0.00000000  1
  Ge  Ge14  1  1.00000000  0.33463462  0.00000000  1
  Ge  Ge15  1  0.00000000  0.00000000  0.33463462  1
  Ge  Ge16  1  0.00000000  0.66536538  1.00000000  1
  Ge  Ge17  1  1.00000000  1.00000000  0.66536538  1
  Ge  Ge18  1  0.66536538  0.00000000  1.00000000  1
  Ge  Ge19  1  0.66536538  0.66536538  0.66536538  1
