# generated using pymatgen
data_K3HPtS2(ClO3)2
_symmetry_space_group_name_H-M   'P 1'
_cell_length_a   9.32406715
_cell_length_b   9.32406715
_cell_length_c   7.14976815
_cell_angle_alpha   90.00000000
_cell_angle_beta   90.00000000
_cell_angle_gamma   110.30669795
_symmetry_Int_Tables_number   1
_chemical_formula_structural   K3HPtS2(ClO3)2
_chemical_formula_sum   'K6 H2 Pt2 S4 Cl4 O12'
_cell_volume   582.95545688
_cell_formula_units_Z   2
loop_
 _symmetry_equiv_pos_site_id
 _symmetry_equiv_pos_as_xyz
  1  'x, y, z'
loop_
 _atom_site_type_symbol
 _atom_site_label
 _atom_site_symmetry_multiplicity
 _atom_site_fract_x
 _atom_site_fract_y
 _atom_site_fract_z
 _atom_site_occupancy
  K  K0  1  0.85993915  0.42009000  0.10100186  1
  K  K1  1  0.42009000  0.85993915  0.10100186  1
  K  K2  1  0.14006085  0.57991000  0.60100186  1
  K  K3  1  0.57991000  0.14006085  0.60100186  1
  K  K4  1  0.87652785  0.87652785  0.28258175  1
  K  K5  1  0.12347215  0.12347215  0.78258175  1
  H  H6  1  0.51516400  0.51516400  0.53346474  1
  H  H7  1  0.48483600  0.48483600  0.03346474  1
  Pt  Pt8  1  0.75491499  0.75491499  0.74946734  1
  Pt  Pt9  1  0.24508501  0.24508501  0.24946734  1
  S  S10  1  0.76144876  0.54305482  0.59806850  1
  S  S11  1  0.54305482  0.76144876  0.59806850  1
  S  S12  1  0.23855124  0.45694518  0.09806850  1
  S  S13  1  0.45694518  0.23855124  0.09806850  1
  Cl  Cl14  1  0.98975848  0.77095827  0.90410132  1
  Cl  Cl15  1  0.77095827  0.98975848  0.90410132  1
  Cl  Cl16  1  0.01024152  0.22904173  0.40410132  1
  Cl  Cl17  1  0.22904173  0.01024152  0.40410132  1
  O  O18  1  0.82013120  0.44276428  0.71152150  1
  O  O19  1  0.44276428  0.82013120  0.71152150  1
  O  O20  1  0.17986880  0.55723572  0.21152150  1
  O  O21  1  0.55723572  0.17986880  0.21152150  1
  O  O22  1  0.85821634  0.59629090  0.42757840  1
  O  O23  1  0.59629090  0.85821634  0.42757840  1
  O  O24  1  0.14178366  0.40370910  0.92757840  1
  O  O25  1  0.40370910  0.14178366  0.92757840  1
  O  O26  1  0.59919200  0.44228520  0.53612152  1
  O  O27  1  0.44228520  0.59919200  0.53612152  1
  O  O28  1  0.40080800  0.55771480  0.03612152  1
  O  O29  1  0.55771480  0.40080800  0.03612152  1
