# generated using pymatgen
data_ZnFeH4O2F5
_symmetry_space_group_name_H-M   'P 1'
_cell_length_a   6.51500794
_cell_length_b   7.44399886
_cell_length_c   7.44399886
_cell_angle_alpha   118.50721957
_cell_angle_beta   115.95093357
_cell_angle_gamma   64.04906643
_symmetry_Int_Tables_number   1
_chemical_formula_structural   ZnFeH4O2F5
_chemical_formula_sum   'Zn2 Fe2 H8 O4 F10'
_cell_volume   273.04274740
_cell_formula_units_Z   2
loop_
 _symmetry_equiv_pos_site_id
 _symmetry_equiv_pos_as_xyz
  1  'x, y, z'
loop_
 _atom_site_type_symbol
 _atom_site_label
 _atom_site_symmetry_multiplicity
 _atom_site_fract_x
 _atom_site_fract_y
 _atom_site_fract_z
 _atom_site_occupancy
  Zn  Zn0  1  0.01202197  0.74781292  0.25218708  1
  Zn  Zn1  1  0.50764781  0.25218708  0.74781292  1
  Fe  Fe2  1  0.00823427  0.24945792  0.24945792  1
  Fe  Fe3  1  0.00823427  0.75054208  0.75054208  1
  H  H4  1  0.55000865  0.73529532  0.05612266  1
  H  H5  1  0.22918130  0.05612266  0.73529532  1
  H  H6  1  0.47086233  0.56224368  0.22901602  1
  H  H7  1  0.80409000  0.22901602  0.56224368  1
  H  H8  1  0.80409000  0.43775632  0.77098398  1
  H  H9  1  0.47086233  0.77098398  0.43775632  1
  H  H10  1  0.55000865  0.94387734  0.26470468  1
  H  H11  1  0.22918130  0.26470468  0.94387734  1
  O  O12  1  0.27022872  0.19167970  0.80832130  1
  O  O13  1  0.36888604  0.68528225  0.31471775  1
  O  O14  1  0.73944953  0.31471775  0.68528225  1
  O  O15  1  0.65358712  0.80832130  0.19167970  1
  F  F16  1  0.09369912  0.00000000  0.00000000  1
  F  F17  1  0.67717207  0.33462403  0.08061026  1
  F  F18  1  0.93118585  0.08061026  0.33462403  1
  F  F19  1  0.08964642  0.41610882  0.16498155  1
  F  F20  1  0.34077368  0.16498155  0.41610882  1
  F  F21  1  0.92876855  0.50000000  0.50000000  1
  F  F22  1  0.08964642  0.83501845  0.58389118  1
  F  F23  1  0.34077368  0.58389118  0.83501845  1
  F  F24  1  0.67717207  0.91938974  0.66537597  1
  F  F25  1  0.93118585  0.66537597  0.91938974  1
