# generated using pymatgen
data_MgTa2O6
_symmetry_space_group_name_H-M   'P 1'
_cell_length_a   5.22954977
_cell_length_b   5.51099610
_cell_length_c   7.60865196
_cell_angle_alpha   89.99609133
_cell_angle_beta   90.00035617
_cell_angle_gamma   89.99691327
_symmetry_Int_Tables_number   1
_chemical_formula_structural   MgTa2O6
_chemical_formula_sum   'Mg2 Ta4 O12'
_cell_volume   219.28156457
_cell_formula_units_Z   2
loop_
 _symmetry_equiv_pos_site_id
 _symmetry_equiv_pos_as_xyz
  1  'x, y, z'
loop_
 _atom_site_type_symbol
 _atom_site_label
 _atom_site_symmetry_multiplicity
 _atom_site_fract_x
 _atom_site_fract_y
 _atom_site_fract_z
 _atom_site_occupancy
  Mg  Mg0  1  0.52456470  0.57114290  0.24998226  1
  Mg  Mg1  1  0.02453401  0.92888765  0.74997477  1
  Ta  Ta2  1  0.50950411  0.01065418  0.00159950  1
  Ta  Ta3  1  0.00953349  0.48939101  0.99838748  1
  Ta  Ta4  1  0.00970348  0.48940400  0.50165220  1
  Ta  Ta5  1  0.50966302  0.01067775  0.49831184  1
  O  O6  1  0.67591001  0.31891788  0.43471906  1
  O  O7  1  0.17586940  0.18107594  0.56524319  1
  O  O8  1  0.78110481  0.77991879  0.05102534  1
  O  O9  1  0.28114442  0.72003100  0.94900073  1
  O  O10  1  0.28139739  0.71990947  0.55092372  1
  O  O11  1  0.78138353  0.78009944  0.44906680  1
  O  O12  1  0.17574997  0.18110253  0.93476278  1
  O  O13  1  0.67580272  0.31883814  0.06525084  1
  O  O14  1  0.13781097  0.47613819  0.24997558  1
  O  O15  1  0.63775176  0.02384794  0.75002006  1
  O  O16  1  0.41533698  0.95921182  0.25000830  1
  O  O17  1  0.91541723  0.54081137  0.74998655  1
