# generated using pymatgen
data_FeF3
_symmetry_space_group_name_H-M   'P 1'
_cell_length_a   7.41151820
_cell_length_b   7.41151903
_cell_length_c   7.41151894
_cell_angle_alpha   60.00000039
_cell_angle_beta   59.99999670
_cell_angle_gamma   59.99999874
_symmetry_Int_Tables_number   1
_chemical_formula_structural   FeF3
_chemical_formula_sum   'Fe4 F12'
_cell_volume   287.87676835
_cell_formula_units_Z   4
loop_
 _symmetry_equiv_pos_site_id
 _symmetry_equiv_pos_as_xyz
  1  'x, y, z'
loop_
 _atom_site_type_symbol
 _atom_site_label
 _atom_site_symmetry_multiplicity
 _atom_site_fract_x
 _atom_site_fract_y
 _atom_site_fract_z
 _atom_site_occupancy
  Fe  Fe0  1  0.00000000  0.00000000  0.50000000  1
  Fe  Fe1  1  0.00000000  0.00000000  0.00000000  1
  Fe  Fe2  1  0.00000000  0.50000000  0.00000000  1
  Fe  Fe3  1  0.50000000  0.00000000  0.00000000  1
  F  F4  1  0.93854812  0.93854812  0.31145188  1
  F  F5  1  0.93854812  0.31145188  0.31145188  1
  F  F6  1  0.31145188  0.93854812  0.31145188  1
  F  F7  1  0.06145188  0.68854812  0.06145188  1
  F  F8  1  0.68854812  0.06145188  0.06145188  1
  F  F9  1  0.68854812  0.68854812  0.06145188  1
  F  F10  1  0.93854812  0.31145188  0.93854812  1
  F  F11  1  0.06145188  0.06145188  0.68854812  1
  F  F12  1  0.68854812  0.06145188  0.68854812  1
  F  F13  1  0.31145188  0.31145188  0.93854812  1
  F  F14  1  0.06145188  0.68854812  0.68854812  1
  F  F15  1  0.31145188  0.93854812  0.93854812  1
