# generated using pymatgen
data_CsTb(PO3)4
_symmetry_space_group_name_H-M   'P 1'
_cell_length_a   7.11061049
_cell_length_b   8.80939340
_cell_length_c   9.17285924
_cell_angle_alpha   90.00000000
_cell_angle_beta   90.00000000
_cell_angle_gamma   99.98301551
_symmetry_Int_Tables_number   1
_chemical_formula_structural   CsTb(PO3)4
_chemical_formula_sum   'Cs2 Tb2 P8 O24'
_cell_volume   565.88966494
_cell_formula_units_Z   2
loop_
 _symmetry_equiv_pos_site_id
 _symmetry_equiv_pos_as_xyz
  1  'x, y, z'
loop_
 _atom_site_type_symbol
 _atom_site_label
 _atom_site_symmetry_multiplicity
 _atom_site_fract_x
 _atom_site_fract_y
 _atom_site_fract_z
 _atom_site_occupancy
  O  O0  1  0.15108250  0.40712001  0.74477091  1
  O  O1  1  0.84891750  0.59287999  0.24477091  1
  O  O2  1  0.78834372  0.63406177  0.51785051  1
  O  O3  1  0.21165628  0.36593823  0.01785051  1
  O  O4  1  0.71936074  0.38195351  0.66777481  1
  O  O5  1  0.28063926  0.61804649  0.16777481  1
  O  O6  1  0.45153711  0.50325689  0.55871180  1
  O  O7  1  0.54846289  0.49674311  0.05871180  1
  O  O8  1  0.48174899  0.18153960  0.52820946  1
  O  O9  1  0.51825101  0.81846040  0.02820946  1
  O  O10  1  0.94788497  0.20022400  0.90046997  1
  O  O11  1  0.05211503  0.79977600  0.40046997  1
  O  O12  1  0.92150068  0.90410756  0.16720003  1
  O  O13  1  0.07849932  0.09589244  0.66720003  1
  O  O14  1  0.86805213  0.91708115  0.84920920  1
  O  O15  1  0.13194787  0.08291885  0.34920920  1
  O  O16  1  0.07789321  0.52275101  0.44529703  1
  O  O17  1  0.92210679  0.47724899  0.94529703  1
  O  O18  1  0.28200282  0.89942841  0.20054111  1
  O  O19  1  0.71799718  0.10057159  0.70054111  1
  O  O20  1  0.65934907  0.63294972  0.77000750  1
  O  O21  1  0.34065093  0.36705028  0.27000750  1
  O  O22  1  0.15585123  0.76657669  0.96447036  1
  O  O23  1  0.84414877  0.23342331  0.46447036  1
  P  P24  1  0.35849528  0.46030287  0.13301272  1
  P  P25  1  0.64150472  0.53969713  0.63301272  1
  P  P26  1  0.94135541  0.62130404  0.39102192  1
  P  P27  1  0.05864459  0.37869596  0.89102192  1
  P  P28  1  0.68693783  0.22312905  0.57504164  1
  P  P29  1  0.31306217  0.77687095  0.07504164  1
  P  P30  1  0.91727763  0.06859431  0.77519094  1
  P  P31  1  0.08272237  0.93140569  0.27519094  1
  Cs  Cs32  1  0.33106565  0.82630361  0.66597319  1
  Cs  Cs33  1  0.66893435  0.17369639  0.16597319  1
  Tb  Tb34  1  0.19859147  0.30265120  0.50124691  1
  Tb  Tb35  1  0.80140853  0.69734880  0.00124691  1
