# generated using pymatgen
data_TiGa2O5
_symmetry_space_group_name_H-M   'P 1'
_cell_length_a   5.04340802
_cell_length_b   5.64301244
_cell_length_c   7.06332254
_cell_angle_alpha   71.65583206
_cell_angle_beta   90.00000001
_cell_angle_gamma   63.45683826
_symmetry_Int_Tables_number   1
_chemical_formula_structural   TiGa2O5
_chemical_formula_sum   'Ti2 Ga4 O10'
_cell_volume   168.33789275
_cell_formula_units_Z   2
loop_
 _symmetry_equiv_pos_site_id
 _symmetry_equiv_pos_as_xyz
  1  'x, y, z'
loop_
 _atom_site_type_symbol
 _atom_site_label
 _atom_site_symmetry_multiplicity
 _atom_site_fract_x
 _atom_site_fract_y
 _atom_site_fract_z
 _atom_site_occupancy
  Ti  Ti0  1  -0.00000000  0.00000000  0.50000000  1
  Ti  Ti1  1  -0.00000000  0.00000000  -0.00000000  1
  Ga  Ga2  1  0.63925409  0.72750599  0.72571508  1
  Ga  Ga3  1  0.63323993  0.72750599  0.22571508  1
  Ga  Ga4  1  0.36676007  0.27249401  0.77428492  1
  Ga  Ga5  1  0.36074591  0.27249401  0.27428492  1
  O  O6  1  0.75035979  0.83108009  0.94904307  1
  O  O7  1  0.41856112  0.83108009  0.44904307  1
  O  O8  1  0.03179144  0.63024372  0.64985285  1
  O  O9  1  0.66203516  0.36975628  0.85014715  1
  O  O10  1  0.33796484  0.63024372  0.14985285  1
  O  O11  1  0.96820856  0.36975628  0.35014715  1
  O  O12  1  0.58143888  0.16891991  0.55095693  1
  O  O13  1  0.19647477  0.00000000  0.75000000  1
  O  O14  1  0.24964021  0.16891991  0.05095693  1
  O  O15  1  0.80352523  1.00000000  0.25000000  1
