# generated using pymatgen
data_H3NO4
_symmetry_space_group_name_H-M   'P 1'
_cell_length_a   5.62348937
_cell_length_b   8.93316560
_cell_length_c   6.58457401
_cell_angle_alpha   90.00000000
_cell_angle_beta   90.00000000
_cell_angle_gamma   90.00000000
_symmetry_Int_Tables_number   1
_chemical_formula_structural   H3NO4
_chemical_formula_sum   'H12 N4 O16'
_cell_volume   330.77977455
_cell_formula_units_Z   4
loop_
 _symmetry_equiv_pos_site_id
 _symmetry_equiv_pos_as_xyz
  1  'x, y, z'
loop_
 _atom_site_type_symbol
 _atom_site_label
 _atom_site_symmetry_multiplicity
 _atom_site_fract_x
 _atom_site_fract_y
 _atom_site_fract_z
 _atom_site_occupancy
  H  H0  1  0.40707638  0.34059471  0.85427236  1
  H  H1  1  0.90707638  0.65940529  0.14572764  1
  H  H2  1  0.90707638  0.84059471  0.64572764  1
  H  H3  1  0.40707638  0.15940529  0.35427236  1
  H  H4  1  0.69147879  0.27710730  0.89175633  1
  H  H5  1  0.46043605  0.15536644  0.86997964  1
  H  H6  1  0.96043605  0.84463356  0.13002036  1
  H  H7  1  0.19147879  0.72289270  0.10824367  1
  H  H8  1  0.19147879  0.77710730  0.60824367  1
  H  H9  1  0.96043605  0.65536644  0.63002036  1
  H  H10  1  0.69147879  0.22289270  0.39175633  1
  H  H11  1  0.46043605  0.34463356  0.36997964  1
  N  N12  1  0.02388607  0.41841041  0.78241182  1
  N  N13  1  0.52388607  0.58158959  0.21758818  1
  N  N14  1  0.52388607  0.91841041  0.71758818  1
  N  N15  1  0.02388607  0.08158959  0.28241182  1
  O  O16  1  0.86344676  0.50342492  0.71197755  1
  O  O17  1  0.36344676  0.49657508  0.28802245  1
  O  O18  1  0.36344676  0.00342492  0.78802245  1
  O  O19  1  0.86344676  0.99657508  0.21197755  1
  O  O20  1  0.24057371  0.45637361  0.76768165  1
  O  O21  1  0.74057371  0.54362639  0.23231835  1
  O  O22  1  0.74057371  0.95637361  0.73231835  1
  O  O23  1  0.24057371  0.04362639  0.26768165  1
  O  O24  1  0.96725140  0.29599659  0.86745375  1
  O  O25  1  0.46725140  0.70400341  0.13254625  1
  O  O26  1  0.46725140  0.79599659  0.63254625  1
  O  O27  1  0.96725140  0.20400341  0.36745375  1
  O  O28  1  0.51412184  0.25920847  0.92135974  1
  O  O29  1  0.01412184  0.74079153  0.07864026  1
  O  O30  1  0.01412184  0.75920847  0.57864026  1
  O  O31  1  0.51412184  0.24079153  0.42135974  1
