# generated using pymatgen
data_CdP2
_symmetry_space_group_name_H-M   'P 1'
_cell_length_a   5.24770641
_cell_length_b   5.48237859
_cell_length_c   10.01461022
_cell_angle_alpha   90.00000000
_cell_angle_beta   90.00000000
_cell_angle_gamma   90.00000000
_symmetry_Int_Tables_number   1
_chemical_formula_structural   CdP2
_chemical_formula_sum   'Cd4 P8'
_cell_volume   288.11946745
_cell_formula_units_Z   4
loop_
 _symmetry_equiv_pos_site_id
 _symmetry_equiv_pos_as_xyz
  1  'x, y, z'
loop_
 _atom_site_type_symbol
 _atom_site_label
 _atom_site_symmetry_multiplicity
 _atom_site_fract_x
 _atom_site_fract_y
 _atom_site_fract_z
 _atom_site_occupancy
  P  P0  1  0.59797565  0.22492538  0.49337912  1
  P  P1  1  0.09797565  0.77507462  0.50662088  1
  P  P2  1  0.59797565  0.27507462  0.99337912  1
  P  P3  1  0.09797565  0.72492538  0.00662088  1
  P  P4  1  0.40155111  0.55954850  0.88050615  1
  P  P5  1  0.90155111  0.44045150  0.11949385  1
  P  P6  1  0.40155111  0.94045150  0.38050615  1
  P  P7  1  0.90155111  0.05954850  0.61949385  1
  Cd  Cd8  1  0.24777324  0.39892561  0.65203798  1
  Cd  Cd9  1  0.74777324  0.60107439  0.34796202  1
  Cd  Cd10  1  0.24777324  0.10107439  0.15203798  1
  Cd  Cd11  1  0.74777324  0.89892561  0.84796202  1
