# generated using pymatgen
data_H7NO6
_symmetry_space_group_name_H-M   'P 1'
_cell_length_a   9.99437732
_cell_length_b   14.87366435
_cell_length_c   3.51849676
_cell_angle_alpha   90.00000000
_cell_angle_beta   90.00000000
_cell_angle_gamma   90.00000000
_symmetry_Int_Tables_number   1
_chemical_formula_structural   H7NO6
_chemical_formula_sum   'H28 N4 O24'
_cell_volume   523.03514687
_cell_formula_units_Z   4
loop_
 _symmetry_equiv_pos_site_id
 _symmetry_equiv_pos_as_xyz
  1  'x, y, z'
loop_
 _atom_site_type_symbol
 _atom_site_label
 _atom_site_symmetry_multiplicity
 _atom_site_fract_x
 _atom_site_fract_y
 _atom_site_fract_z
 _atom_site_occupancy
  H  H0  1  0.58484573  0.73793108  0.34241968  1
  H  H1  1  0.91515427  0.26206892  0.84241968  1
  H  H2  1  0.08484573  0.76206892  0.65758032  1
  H  H3  1  0.41515427  0.23793108  0.15758032  1
  H  H4  1  0.48207719  0.66639110  0.96746410  1
  H  H5  1  0.53872631  0.59126497  0.26545069  1
  H  H6  1  0.96127369  0.40873503  0.76545069  1
  H  H7  1  0.01792281  0.33360890  0.46746410  1
  H  H8  1  0.03872631  0.90873503  0.73454931  1
  H  H9  1  0.98207719  0.83360890  0.03253590  1
  H  H10  1  0.46127369  0.09126497  0.23454931  1
  H  H11  1  0.51792281  0.16639110  0.53253590  1
  H  H12  1  0.41078932  0.95945604  0.16226340  1
  H  H13  1  0.56785634  0.97483983  0.15661140  1
  H  H14  1  0.08921068  0.04054396  0.66226340  1
  H  H15  1  0.93214366  0.02516017  0.65661140  1
  H  H16  1  0.91078932  0.54054396  0.83773660  1
  H  H17  1  0.06785634  0.52516017  0.84338860  1
  H  H18  1  0.58921068  0.45945604  0.33773660  1
  H  H19  1  0.43214366  0.47483983  0.34338860  1
  H  H20  1  0.20732779  0.88137650  0.14344807  1
  H  H21  1  0.29922877  0.84406903  0.46892739  1
  H  H22  1  0.29267221  0.11862350  0.64344807  1
  H  H23  1  0.20077123  0.15593097  0.96892739  1
  H  H24  1  0.79922877  0.65593097  0.53107261  1
  H  H25  1  0.70732779  0.61862350  0.85655193  1
  H  H26  1  0.70077123  0.34406903  0.03107261  1
  H  H27  1  0.79267221  0.38137650  0.35655193  1
  N  N28  1  0.72416842  0.83270312  0.31465483  1
  N  N29  1  0.77583158  0.16729688  0.81465483  1
  N  N30  1  0.22416842  0.66729688  0.68534517  1
  N  N31  1  0.27583158  0.33270312  0.18534517  1
  O  O32  1  0.60178784  0.80744716  0.43725967  1
  O  O33  1  0.89821216  0.19255284  0.93725967  1
  O  O34  1  0.10178784  0.69255284  0.56274033  1
  O  O35  1  0.39821216  0.30744716  0.06274033  1
  O  O36  1  0.81268965  0.77441664  0.28423377  1
  O  O37  1  0.68731035  0.22558336  0.78423377  1
  O  O38  1  0.31268965  0.72558336  0.71576623  1
  O  O39  1  0.18731035  0.27441664  0.21576623  1
  O  O40  1  0.73936727  0.91316914  0.24226702  1
  O  O41  1  0.76063273  0.08683086  0.74226702  1
  O  O42  1  0.23936727  0.58683086  0.75773298  1
  O  O43  1  0.26063273  0.41316914  0.25773298  1
  O  O44  1  0.55545703  0.65673865  0.14826556  1
  O  O45  1  0.94454297  0.34326135  0.64826556  1
  O  O46  1  0.05545703  0.84326135  0.85173444  1
  O  O47  1  0.44454297  0.15673865  0.35173444  1
  O  O48  1  0.48309891  0.00229801  0.07889651  1
  O  O49  1  0.01690109  0.99770199  0.57889651  1
  O  O50  1  0.98309891  0.49770199  0.92110349  1
  O  O51  1  0.51690109  0.50229801  0.42110349  1
  O  O52  1  0.28658031  0.89522697  0.29861116  1
  O  O53  1  0.21341969  0.10477303  0.79861116  1
  O  O54  1  0.78658031  0.60477303  0.70138884  1
  O  O55  1  0.71341969  0.39522697  0.20138884  1
