# generated using pymatgen
data_SrAl2O4
_symmetry_space_group_name_H-M   'P 1'
_cell_length_a   9.00102136
_cell_length_b   9.00102136
_cell_length_c   8.50146679
_cell_angle_alpha   90.00000000
_cell_angle_beta   90.00000000
_cell_angle_gamma   120.00000000
_symmetry_Int_Tables_number   1
_chemical_formula_structural   SrAl2O4
_chemical_formula_sum   'Sr6 Al12 O24'
_cell_volume   596.49674631
_cell_formula_units_Z   6
loop_
 _symmetry_equiv_pos_site_id
 _symmetry_equiv_pos_as_xyz
  1  'x, y, z'
loop_
 _atom_site_type_symbol
 _atom_site_label
 _atom_site_symmetry_multiplicity
 _atom_site_fract_x
 _atom_site_fract_y
 _atom_site_fract_z
 _atom_site_occupancy
  O  O0  1  0.54301661  0.45000245  0.52015018  1
  O  O1  1  0.09301416  0.54301661  0.02015018  1
  O  O2  1  0.45000245  0.90698584  0.02015018  1
  O  O3  1  0.54999755  0.09301416  0.52015018  1
  O  O4  1  0.90698584  0.45698339  0.52015018  1
  O  O5  1  0.45698339  0.54999755  0.02015018  1
  O  O6  1  0.20767840  0.79047222  0.43748465  1
  O  O7  1  0.41720618  0.20767840  0.93748465  1
  O  O8  1  0.79047222  0.58279382  0.93748465  1
  O  O9  1  0.20952778  0.41720618  0.43748465  1
  O  O10  1  0.58279382  0.79232160  0.43748465  1
  O  O11  1  0.79232160  0.20952778  0.93748465  1
  O  O12  1  0.88689041  0.11921007  0.53829611  1
  O  O13  1  0.76768034  0.88689041  0.03829611  1
  O  O14  1  0.11921007  0.23231966  0.03829611  1
  O  O15  1  0.88078993  0.76768034  0.53829611  1
  O  O16  1  0.23231966  0.11310959  0.53829611  1
  O  O17  1  0.11310959  0.88078993  0.03829611  1
  O  O18  1  0.27467084  0.36952329  0.75097966  1
  O  O19  1  0.90514755  0.27467084  0.25097966  1
  O  O20  1  0.36952329  0.09485245  0.25097966  1
  O  O21  1  0.63047671  0.90514755  0.75097966  1
  O  O22  1  0.09485245  0.72532916  0.75097966  1
  O  O23  1  0.72532916  0.63047671  0.25097966  1
  Al  Al24  1  0.67762395  0.66152452  0.44644727  1
  Al  Al25  1  0.01609942  0.67762395  0.94644727  1
  Al  Al26  1  0.66152452  0.98390058  0.94644727  1
  Al  Al27  1  0.33847548  0.01609942  0.44644727  1
  Al  Al28  1  0.98390058  0.32237605  0.44644727  1
  Al  Al29  1  0.32237605  0.33847548  0.94644727  1
  Al  Al30  1  0.68251485  0.66188232  0.05472396  1
  Al  Al31  1  0.02063254  0.68251485  0.55472396  1
  Al  Al32  1  0.66188232  0.97936746  0.55472396  1
  Al  Al33  1  0.33811768  0.02063254  0.05472396  1
  Al  Al34  1  0.97936746  0.31748515  0.05472396  1
  Al  Al35  1  0.31748515  0.33811768  0.55472396  1
  Sr  Sr36  1  0.66666667  0.33333333  0.28685547  1
  Sr  Sr37  1  0.33333333  0.66666667  0.78685547  1
  Sr  Sr38  1  0.66666667  0.33333333  0.74510330  1
  Sr  Sr39  1  0.33333333  0.66666667  0.24510330  1
  Sr  Sr40  1  0.00000000  0.00000000  0.75279576  1
  Sr  Sr41  1  0.00000000  0.00000000  0.25279576  1
