# generated using pymatgen
data_CsNd5Se8
_symmetry_space_group_name_H-M   'P 1'
_cell_length_a   7.92624293
_cell_length_b   7.92624320
_cell_length_c   7.92624356
_cell_angle_alpha   109.08688759
_cell_angle_beta   109.08689192
_cell_angle_gamma   110.24264786
_symmetry_Int_Tables_number   1
_chemical_formula_structural   CsNd5Se8
_chemical_formula_sum   'Cs1 Nd5 Se8'
_cell_volume   383.28440667
_cell_formula_units_Z   1
loop_
 _symmetry_equiv_pos_site_id
 _symmetry_equiv_pos_as_xyz
  1  'x, y, z'
loop_
 _atom_site_type_symbol
 _atom_site_label
 _atom_site_symmetry_multiplicity
 _atom_site_fract_x
 _atom_site_fract_y
 _atom_site_fract_z
 _atom_site_occupancy
  Cs  Cs0  1  0.87500000  0.12500000  0.75000000  1
  Nd  Nd1  1  0.11460528  0.75106057  0.87296428  1
  Nd  Nd2  1  0.24893943  0.62190371  0.36354471  1
  Nd  Nd3  1  0.37809629  0.24164100  0.62703572  1
  Nd  Nd4  1  0.75835900  0.88539472  0.13645529  1
  Nd  Nd5  1  0.62500000  0.37500000  0.25000000  1
  Se  Se6  1  0.01354124  0.83593764  0.49122283  1
  Se  Se7  1  0.00491084  0.36870707  0.49202141  1
  Se  Se8  1  0.16406236  0.15528519  0.17760359  1
  Se  Se9  1  0.47768159  0.98645876  0.32239641  1
  Se  Se10  1  0.37668566  0.51288942  0.00797859  1
  Se  Se11  1  0.48711058  0.99508916  0.86379624  1
  Se  Se12  1  0.63129293  0.62331434  0.63620376  1
  Se  Se13  1  0.84471481  0.52231841  0.00877717  1
