# generated using pymatgen
data_Ba5(SiN3)2
_symmetry_space_group_name_H-M   'P 1'
_cell_length_a   6.22596139
_cell_length_b   10.53724383
_cell_length_c   15.51737587
_cell_angle_alpha   90.00000000
_cell_angle_beta   90.00000000
_cell_angle_gamma   90.00000000
_symmetry_Int_Tables_number   1
_chemical_formula_structural   Ba5(SiN3)2
_chemical_formula_sum   'Ba20 Si8 N24'
_cell_volume   1018.00927006
_cell_formula_units_Z   4
loop_
 _symmetry_equiv_pos_site_id
 _symmetry_equiv_pos_as_xyz
  1  'x, y, z'
loop_
 _atom_site_type_symbol
 _atom_site_label
 _atom_site_symmetry_multiplicity
 _atom_site_fract_x
 _atom_site_fract_y
 _atom_site_fract_z
 _atom_site_occupancy
  N  N0  1  0.04817430  0.57377289  0.15066898  1
  N  N1  1  0.54817430  0.92622711  0.84933102  1
  N  N2  1  0.95182570  0.07377289  0.34933102  1
  N  N3  1  0.45182570  0.42622711  0.65066898  1
  N  N4  1  0.94593472  0.81931901  0.60716070  1
  N  N5  1  0.44593472  0.68068099  0.39283930  1
  N  N6  1  0.05406528  0.31931901  0.89283930  1
  N  N7  1  0.55406528  0.18068099  0.10716070  1
  N  N8  1  0.14551026  0.97879861  0.74283498  1
  N  N9  1  0.64551026  0.52120139  0.25716502  1
  N  N10  1  0.85448974  0.47879861  0.75716502  1
  N  N11  1  0.35448974  0.02120139  0.24283498  1
  N  N12  1  0.14789814  0.05782332  0.06361906  1
  N  N13  1  0.64789814  0.44217668  0.93638094  1
  N  N14  1  0.85210186  0.55782332  0.43638094  1
  N  N15  1  0.35210186  0.94217668  0.56361906  1
  N  N16  1  0.15638446  0.23516641  0.21224875  1
  N  N17  1  0.65638446  0.26483359  0.78775125  1
  N  N18  1  0.84361554  0.73516641  0.28775125  1
  N  N19  1  0.34361554  0.76483359  0.71224875  1
  N  N20  1  0.14834070  0.79046355  0.88522954  1
  N  N21  1  0.64834070  0.70953645  0.11477046  1
  N  N22  1  0.85165930  0.29046355  0.61477046  1
  N  N23  1  0.35165930  0.20953645  0.38522954  1
  Si  Si24  1  0.19195558  0.13526994  0.30528284  1
  Si  Si25  1  0.69195558  0.36473006  0.69471716  1
  Si  Si26  1  0.80804442  0.63526994  0.19471716  1
  Si  Si27  1  0.30804442  0.86473006  0.80528284  1
  Si  Si28  1  0.30905064  0.12026513  0.14707145  1
  Si  Si29  1  0.80905064  0.37973487  0.85292855  1
  Si  Si30  1  0.69094936  0.62026513  0.35292855  1
  Si  Si31  1  0.19094936  0.87973487  0.64707145  1
  Ba  Ba32  1  0.34313660  0.53724107  0.81841913  1
  Ba  Ba33  1  0.84313660  0.96275893  0.18158087  1
  Ba  Ba34  1  0.65686340  0.03724107  0.68158087  1
  Ba  Ba35  1  0.15686340  0.46275893  0.31841913  1
  Ba  Ba36  1  0.40802555  0.86576924  0.00925395  1
  Ba  Ba37  1  0.90802555  0.63423076  0.99074605  1
  Ba  Ba38  1  0.59197445  0.36576924  0.49074605  1
  Ba  Ba39  1  0.09197445  0.13423076  0.50925395  1
  Ba  Ba40  1  0.42603700  0.47389307  0.09956661  1
  Ba  Ba41  1  0.92603700  0.02610693  0.90043339  1
  Ba  Ba42  1  0.57396300  0.97389307  0.40043339  1
  Ba  Ba43  1  0.07396300  0.52610693  0.59956661  1
  Ba  Ba44  1  0.42262927  0.20694846  0.93481222  1
  Ba  Ba45  1  0.92262927  0.29305154  0.06518778  1
  Ba  Ba46  1  0.57737073  0.70694846  0.56518778  1
  Ba  Ba47  1  0.07737073  0.79305154  0.43481222  1
  Ba  Ba48  1  0.66939813  0.25879759  0.26878201  1
  Ba  Ba49  1  0.16939813  0.24120241  0.73121799  1
  Ba  Ba50  1  0.33060187  0.75879759  0.23121799  1
  Ba  Ba51  1  0.83060187  0.74120241  0.76878201  1
