# generated using pymatgen
data_Na2Ge2O5
_symmetry_space_group_name_H-M   'P 1'
_cell_length_a   5.74550030
_cell_length_b   9.96397986
_cell_length_c   8.69491990
_cell_angle_alpha   90.00000000
_cell_angle_beta   90.00000000
_cell_angle_gamma   90.00000000
_symmetry_Int_Tables_number   1
_chemical_formula_structural   Na2Ge2O5
_chemical_formula_sum   'Na8 Ge8 O20'
_cell_volume   497.76720288
_cell_formula_units_Z   4
loop_
 _symmetry_equiv_pos_site_id
 _symmetry_equiv_pos_as_xyz
  1  'x, y, z'
loop_
 _atom_site_type_symbol
 _atom_site_label
 _atom_site_symmetry_multiplicity
 _atom_site_fract_x
 _atom_site_fract_y
 _atom_site_fract_z
 _atom_site_occupancy
  Na  Na0  1  0.06395731  0.50975370  0.97695570  1
  Na  Na1  1  0.06395731  0.99024630  0.47695570  1
  Na  Na2  1  0.09213062  0.25684435  0.24957621  1
  Na  Na3  1  0.09213062  0.24315565  0.74957621  1
  Na  Na4  1  0.90786938  0.74315565  0.74957621  1
  Na  Na5  1  0.90786938  0.75684435  0.24957621  1
  Na  Na6  1  0.93604269  0.49024630  0.47695570  1
  Na  Na7  1  0.93604269  0.00975370  0.97695570  1
  Ge  Ge8  1  0.36640483  0.79915015  0.05340836  1
  Ge  Ge9  1  0.36640483  0.70084985  0.55340836  1
  Ge  Ge10  1  0.45418277  0.53853616  0.24960493  1
  Ge  Ge11  1  0.45418277  0.96146384  0.74960493  1
  Ge  Ge12  1  0.54581723  0.03853616  0.24960493  1
  Ge  Ge13  1  0.54581723  0.46146384  0.74960493  1
  Ge  Ge14  1  0.63359517  0.29915015  0.05340836  1
  Ge  Ge15  1  0.63359517  0.20084985  0.55340836  1
  O  O16  1  0.08900337  0.74107614  0.49707284  1
  O  O17  1  0.08900337  0.75892386  0.99707284  1
  O  O18  1  0.16523379  0.00300050  0.74526382  1
  O  O19  1  0.16523379  0.49699950  0.24526382  1
  O  O20  1  0.33835701  0.90601917  0.22226168  1
  O  O21  1  0.33835701  0.59398083  0.72226168  1
  O  O22  1  0.43783563  0.10935232  0.42828173  1
  O  O23  1  0.43783563  0.39064768  0.92828173  1
  O  O24  1  0.44532341  0.16420633  0.11318474  1
  O  O25  1  0.44532341  0.33579367  0.61318474  1
  O  O26  1  0.55467659  0.66420633  0.11318474  1
  O  O27  1  0.55467659  0.83579367  0.61318474  1
  O  O28  1  0.56216437  0.60935232  0.42828173  1
  O  O29  1  0.56216437  0.89064768  0.92828173  1
  O  O30  1  0.66164299  0.09398083  0.72226168  1
  O  O31  1  0.66164299  0.40601917  0.22226168  1
  O  O32  1  0.83476621  0.50300050  0.74526382  1
  O  O33  1  0.83476621  0.99699950  0.24526382  1
  O  O34  1  0.91099663  0.24107614  0.49707284  1
  O  O35  1  0.91099663  0.25892386  0.99707284  1
