# generated using pymatgen
data_Sr2VN3
_symmetry_space_group_name_H-M   'P 1'
_cell_length_a   5.75561822
_cell_length_b   6.24020540
_cell_length_c   12.36163671
_cell_angle_alpha   89.63735827
_cell_angle_beta   89.21363286
_cell_angle_gamma   62.53722813
_symmetry_Int_Tables_number   1
_chemical_formula_structural   Sr2VN3
_chemical_formula_sum   'Sr8 V4 N12'
_cell_volume   393.91420162
_cell_formula_units_Z   4
loop_
 _symmetry_equiv_pos_site_id
 _symmetry_equiv_pos_as_xyz
  1  'x, y, z'
loop_
 _atom_site_type_symbol
 _atom_site_label
 _atom_site_symmetry_multiplicity
 _atom_site_fract_x
 _atom_site_fract_y
 _atom_site_fract_z
 _atom_site_occupancy
  N  N0  1  0.32647365  0.82097178  0.95385368  1
  N  N1  1  0.85255457  0.82097178  0.54614632  1
  N  N2  1  0.67352635  0.17902822  0.04614632  1
  N  N3  1  0.14744543  0.17902822  0.45385368  1
  N  N4  1  0.02022912  0.95954176  0.75000000  1
  N  N5  1  0.97977088  0.04045824  0.25000000  1
  N  N6  1  0.55295966  0.89408068  0.75000000  1
  N  N7  1  0.87921954  0.67843438  0.13266159  1
  N  N8  1  0.55765392  0.32156562  0.63266159  1
  N  N9  1  0.12078046  0.32156562  0.86733841  1
  N  N10  1  0.44234608  0.67843438  0.36733841  1
  N  N11  1  0.44704034  0.10591932  0.25000000  1
  V  V12  1  0.25884591  0.99457054  0.33604962  1
  V  V13  1  0.74115409  0.00542946  0.66395038  1
  V  V14  1  0.74658355  0.99457054  0.16395038  1
  V  V15  1  0.25341645  0.00542946  0.83604962  1
  Sr  Sr16  1  0.44497149  0.60509194  0.14575540  1
  Sr  Sr17  1  0.05006344  0.39490806  0.64575540  1
  Sr  Sr18  1  0.55502851  0.39490806  0.85424460  1
  Sr  Sr19  1  0.94993656  0.60509194  0.35424460  1
  Sr  Sr20  1  0.35452463  0.77887301  0.57743315  1
  Sr  Sr21  1  0.86660237  0.77887301  0.92256685  1
  Sr  Sr22  1  0.64547537  0.22112699  0.42256685  1
  Sr  Sr23  1  0.13339763  0.22112699  0.07743315  1
