# generated using pymatgen
data_RbSe
_symmetry_space_group_name_H-M   'P 1'
_cell_length_a   9.42172572
_cell_length_b   9.42172572
_cell_length_c   6.36530148
_cell_angle_alpha   90.00000000
_cell_angle_beta   90.00000000
_cell_angle_gamma   120.00000000
_symmetry_Int_Tables_number   1
_chemical_formula_structural   RbSe
_chemical_formula_sum   'Rb6 Se6'
_cell_volume   489.33978173
_cell_formula_units_Z   6
loop_
 _symmetry_equiv_pos_site_id
 _symmetry_equiv_pos_as_xyz
  1  'x, y, z'
loop_
 _atom_site_type_symbol
 _atom_site_label
 _atom_site_symmetry_multiplicity
 _atom_site_fract_x
 _atom_site_fract_y
 _atom_site_fract_z
 _atom_site_occupancy
  Se  Se0  1  0.66666667  0.33333333  0.30805176  1
  Se  Se1  1  0.66666667  0.33333333  0.69194824  1
  Se  Se2  1  0.33333333  0.66666667  0.69194824  1
  Se  Se3  1  0.33333333  0.66666667  0.30805176  1
  Se  Se4  1  0.00000000  0.00000000  0.80911897  1
  Se  Se5  1  0.00000000  0.00000000  0.19088103  1
  Rb  Rb6  1  0.00000000  0.31251759  0.50000000  1
  Rb  Rb7  1  0.68748241  0.68748241  0.50000000  1
  Rb  Rb8  1  0.31251759  0.00000000  0.50000000  1
  Rb  Rb9  1  0.00000000  0.64742867  0.00000000  1
  Rb  Rb10  1  0.35257133  0.35257133  0.00000000  1
  Rb  Rb11  1  0.64742867  0.00000000  0.00000000  1
