# generated using pymatgen
data_ErH9C5(NO4)2
_symmetry_space_group_name_H-M   'P 1'
_cell_length_a   6.67841370
_cell_length_b   6.67841370
_cell_length_c   6.62268303
_cell_angle_alpha   73.93051382
_cell_angle_beta   106.06948618
_cell_angle_gamma   115.01876641
_symmetry_Int_Tables_number   1
_chemical_formula_structural   ErH9C5(NO4)2
_chemical_formula_sum   'Er1 H9 C5 N2 O8'
_cell_volume   252.84059930
_cell_formula_units_Z   1
loop_
 _symmetry_equiv_pos_site_id
 _symmetry_equiv_pos_as_xyz
  1  'x, y, z'
loop_
 _atom_site_type_symbol
 _atom_site_label
 _atom_site_symmetry_multiplicity
 _atom_site_fract_x
 _atom_site_fract_y
 _atom_site_fract_z
 _atom_site_occupancy
  Er  Er0  1  0.99908669  0.99908669  0.00000000  1
  H  H1  1  0.18516000  0.65390710  0.42084739  1
  H  H2  1  0.65390710  0.18516000  0.57915261  1
  H  H3  1  0.48009122  0.73837354  0.51995711  1
  H  H4  1  0.73837354  0.48009122  0.48004289  1
  H  H5  1  0.83402272  0.46090074  0.87256416  1
  H  H6  1  0.46090074  0.83402272  0.12743584  1
  H  H7  1  0.08762795  0.08762795  0.50000000  1
  H  H8  1  0.45157115  0.45722886  0.79912516  1
  H  H9  1  0.45722886  0.45157115  0.20087484  1
  C  C10  1  0.93940030  0.46763798  0.03506638  1
  C  C11  1  0.46763798  0.93940030  0.96493362  1
  C  C12  1  0.93412407  0.93412407  0.50000000  1
  C  C13  1  0.29210801  0.46653251  0.70008105  1
  C  C14  1  0.46653251  0.29210801  0.29991895  1
  N  N15  1  0.31837693  0.63492259  0.53582650  1
  N  N16  1  0.63492259  0.31837693  0.46417350  1
  O  O17  1  0.00830029  0.31044484  0.12600876  1
  O  O18  1  0.31044484  0.00830029  0.87399124  1
  O  O19  1  0.98050116  0.63699658  0.11543061  1
  O  O20  1  0.63699658  0.98050116  0.88456939  1
  O  O21  1  0.84464773  0.85791429  0.66614754  1
  O  O22  1  0.85791429  0.84464773  0.33385246  1
  O  O23  1  0.10518893  0.32553382  0.74407727  1
  O  O24  1  0.32553382  0.10518893  0.25592273  1
