# generated using pymatgen
data_Cs2Pd3S4
_symmetry_space_group_name_H-M   'P 1'
_cell_length_a   6.28343951
_cell_length_b   6.31589432
_cell_length_c   7.86060536
_cell_angle_alpha   102.14991340
_cell_angle_beta   101.96733876
_cell_angle_gamma   118.59307644
_symmetry_Int_Tables_number   1
_chemical_formula_structural   Cs2Pd3S4
_chemical_formula_sum   'Cs2 Pd3 S4'
_cell_volume   249.93001253
_cell_formula_units_Z   1
loop_
 _symmetry_equiv_pos_site_id
 _symmetry_equiv_pos_as_xyz
  1  'x, y, z'
loop_
 _atom_site_type_symbol
 _atom_site_label
 _atom_site_symmetry_multiplicity
 _atom_site_fract_x
 _atom_site_fract_y
 _atom_site_fract_z
 _atom_site_occupancy
  Cs  Cs0  1  0.16122486  0.16121754  0.32248596  1
  Cs  Cs1  1  0.83877514  0.83878246  0.67751404  1
  Pd  Pd2  1  0.50000000  0.50000000  0.00000000  1
  Pd  Pd3  1  0.00000000  0.50000000  0.00000000  1
  Pd  Pd4  1  0.50000000  0.00000000  0.00000000  1
  S  S5  1  0.43819752  0.77517844  0.21141845  1
  S  S6  1  0.22678922  0.56374708  0.78858872  1
  S  S7  1  0.56180248  0.22482156  0.78858155  1
  S  S8  1  0.77321078  0.43625292  0.21141128  1
