# generated using pymatgen
data_H8Se2N2O5
_symmetry_space_group_name_H-M   'P 1'
_cell_length_a   7.63863130
_cell_length_b   13.22770582
_cell_length_c   7.21165602
_cell_angle_alpha   90.00000000
_cell_angle_beta   90.00000000
_cell_angle_gamma   90.00000000
_symmetry_Int_Tables_number   1
_chemical_formula_structural   H8Se2N2O5
_chemical_formula_sum   'H32 Se8 N8 O20'
_cell_volume   728.67703000
_cell_formula_units_Z   4
loop_
 _symmetry_equiv_pos_site_id
 _symmetry_equiv_pos_as_xyz
  1  'x, y, z'
loop_
 _atom_site_type_symbol
 _atom_site_label
 _atom_site_symmetry_multiplicity
 _atom_site_fract_x
 _atom_site_fract_y
 _atom_site_fract_z
 _atom_site_occupancy
  H  H0  1  0.61001455  0.95176094  0.10365677  1
  H  H1  1  0.88998545  0.04823906  0.60365677  1
  H  H2  1  0.11001455  0.54823906  0.89634323  1
  H  H3  1  0.38998545  0.45176094  0.39634323  1
  H  H4  1  0.63362866  0.08044968  0.08098896  1
  H  H5  1  0.86637134  0.91955032  0.58098896  1
  H  H6  1  0.13362866  0.41955032  0.91901104  1
  H  H7  1  0.36637134  0.58044968  0.41901104  1
  H  H8  1  0.79374442  0.00166695  0.01545817  1
  H  H9  1  0.70625558  0.99833305  0.51545817  1
  H  H10  1  0.29374442  0.49833305  0.98454183  1
  H  H11  1  0.20625558  0.50166695  0.48454183  1
  H  H12  1  0.60317292  0.00806205  0.88747430  1
  H  H13  1  0.89682708  0.99193795  0.38747430  1
  H  H14  1  0.10317292  0.49193795  0.11252570  1
  H  H15  1  0.39682708  0.50806205  0.61252570  1
  H  H16  1  0.29994543  0.24924918  0.66274382  1
  H  H17  1  0.20005457  0.75075082  0.16274382  1
  H  H18  1  0.79994543  0.25075082  0.33725618  1
  H  H19  1  0.70005457  0.74924918  0.83725618  1
  H  H20  1  0.51240710  0.28241018  0.62267412  1
  H  H21  1  0.98759290  0.71758982  0.12267412  1
  H  H22  1  0.01240710  0.21758982  0.37732588  1
  H  H23  1  0.48759290  0.78241018  0.87732588  1
  H  H24  1  0.44710372  0.15673555  0.60774720  1
  H  H25  1  0.05289628  0.84326445  0.10774720  1
  H  H26  1  0.94710372  0.34326445  0.39225280  1
  H  H27  1  0.55289628  0.65673555  0.89225280  1
  H  H28  1  0.38526699  0.24169338  0.44622284  1
  H  H29  1  0.11473301  0.75830662  0.94622284  1
  H  H30  1  0.88526699  0.25830662  0.55377716  1
  H  H31  1  0.61473301  0.74169338  0.05377716  1
  Se  Se32  1  0.20409618  0.04048003  0.16669405  1
  Se  Se33  1  0.29590382  0.95951997  0.66669405  1
  Se  Se34  1  0.70409618  0.45951997  0.83330595  1
  Se  Se35  1  0.79590382  0.54048003  0.33330595  1
  Se  Se36  1  0.00678976  0.21112826  0.92809921  1
  Se  Se37  1  0.49321024  0.78887174  0.42809921  1
  Se  Se38  1  0.50678976  0.28887174  0.07190079  1
  Se  Se39  1  0.99321024  0.71112826  0.57190079  1
  N  N40  1  0.65862295  0.00969364  0.01956182  1
  N  N41  1  0.84137705  0.99030636  0.51956182  1
  N  N42  1  0.15862295  0.49030636  0.98043818  1
  N  N43  1  0.34137705  0.50969364  0.48043818  1
  N  N44  1  0.41188283  0.23205362  0.58544050  1
  N  N45  1  0.08811717  0.76794638  0.08544050  1
  N  N46  1  0.91188283  0.26794638  0.41455950  1
  N  N47  1  0.58811717  0.73205362  0.91455950  1
  O  O48  1  0.17205987  0.12384066  0.33953136  1
  O  O49  1  0.32794013  0.87615934  0.83953136  1
  O  O50  1  0.67205987  0.37615934  0.66046864  1
  O  O51  1  0.82794013  0.62384066  0.16046864  1
  O  O52  1  0.00807739  0.97875217  0.14765719  1
  O  O53  1  0.49192261  0.02124783  0.64765719  1
  O  O54  1  0.50807739  0.52124783  0.85234281  1
  O  O55  1  0.99192261  0.47875217  0.35234281  1
  O  O56  1  0.20175767  0.12316033  0.95620035  1
  O  O57  1  0.29824233  0.87683967  0.45620035  1
  O  O58  1  0.70175767  0.37683967  0.04379965  1
  O  O59  1  0.79824233  0.62316033  0.54379965  1
  O  O60  1  0.11563690  0.30112185  0.80582098  1
  O  O61  1  0.38436310  0.69887815  0.30582098  1
  O  O62  1  0.61563690  0.19887815  0.19417902  1
  O  O63  1  0.88436310  0.80112185  0.69417902  1
  O  O64  1  0.88555704  0.14767377  0.77301860  1
  O  O65  1  0.61444296  0.85232623  0.27301860  1
  O  O66  1  0.38555704  0.35232623  0.22698140  1
  O  O67  1  0.11444296  0.64767377  0.72698140  1
