# generated using pymatgen
data_RbFe(SeO4)2
_symmetry_space_group_name_H-M   'P 1'
_cell_length_a   5.25954934
_cell_length_b   5.25954934
_cell_length_c   8.89655465
_cell_angle_alpha   90.00000000
_cell_angle_beta   90.00000000
_cell_angle_gamma   120.00000000
_symmetry_Int_Tables_number   1
_chemical_formula_structural   RbFe(SeO4)2
_chemical_formula_sum   'Rb1 Fe1 Se2 O8'
_cell_volume   213.13243647
_cell_formula_units_Z   1
loop_
 _symmetry_equiv_pos_site_id
 _symmetry_equiv_pos_as_xyz
  1  'x, y, z'
loop_
 _atom_site_type_symbol
 _atom_site_label
 _atom_site_symmetry_multiplicity
 _atom_site_fract_x
 _atom_site_fract_y
 _atom_site_fract_z
 _atom_site_occupancy
  O  O0  1  0.75591288  0.08532092  0.64629221  1
  O  O1  1  0.91467908  0.67059196  0.64629221  1
  O  O2  1  0.32940804  0.24408712  0.64629221  1
  O  O3  1  0.67059196  0.91467908  0.35370779  1
  O  O4  1  0.33333333  0.66666667  0.10869710  1
  O  O5  1  0.66666667  0.33333333  0.89130290  1
  O  O6  1  0.08532092  0.75591288  0.35370779  1
  O  O7  1  0.24408712  0.32940804  0.35370779  1
  Fe  Fe8  1  0.00000000  0.00000000  0.50000000  1
  Se  Se9  1  0.66666667  0.33333333  0.70632399  1
  Se  Se10  1  0.33333333  0.66666667  0.29367601  1
  Rb  Rb11  1  0.00000000  0.00000000  0.00000000  1
