# generated using pymatgen
data_Dy2P4O13
_symmetry_space_group_name_H-M   'P 1'
_cell_length_a   9.49505263
_cell_length_b   9.49505263
_cell_length_c   8.62785098
_cell_angle_alpha   90.00000000
_cell_angle_beta   90.00000000
_cell_angle_gamma   136.27238562
_symmetry_Int_Tables_number   1
_chemical_formula_structural   Dy2P4O13
_chemical_formula_sum   'Dy4 P8 O26'
_cell_volume   537.67575415
_cell_formula_units_Z   2
loop_
 _symmetry_equiv_pos_site_id
 _symmetry_equiv_pos_as_xyz
  1  'x, y, z'
loop_
 _atom_site_type_symbol
 _atom_site_label
 _atom_site_symmetry_multiplicity
 _atom_site_fract_x
 _atom_site_fract_y
 _atom_site_fract_z
 _atom_site_occupancy
  Dy  Dy0  1  0.10683568  0.40060159  0.10288375  1
  Dy  Dy1  1  0.59939841  0.89316432  0.89711725  1
  Dy  Dy2  1  0.40060159  0.10683568  0.39711725  1
  Dy  Dy3  1  0.89316432  0.59939841  0.60288275  1
  P  P4  1  0.58472198  0.90426787  0.25276833  1
  P  P5  1  0.09573213  0.41527802  0.74723167  1
  P  P6  1  0.72049751  0.83716885  0.52390350  1
  P  P7  1  0.16283115  0.27950249  0.47609650  1
  P  P8  1  0.27950249  0.16283115  0.02390350  1
  P  P9  1  0.83716885  0.72049751  0.97609650  1
  P  P10  1  0.90426787  0.58472198  0.24723167  1
  P  P11  1  0.41527802  0.09573213  0.75276833  1
  O  O12  1  0.06210864  0.93789136  0.00000000  1
  O  O13  1  0.06773352  0.77669149  0.34831781  1
  O  O14  1  0.22330851  0.93226648  0.65168219  1
  O  O15  1  0.52752756  0.98301266  0.35852876  1
  O  O16  1  0.01698734  0.47247244  0.64147124  1
  O  O17  1  0.41861025  0.73950879  0.13690407  1
  O  O18  1  0.26049121  0.58138975  0.86309593  1
  O  O19  1  0.15849259  0.38691567  0.35212996  1
  O  O20  1  0.61308433  0.84150741  0.64787004  1
  O  O21  1  0.61787086  0.78804624  0.35812734  1
  O  O22  1  0.21195376  0.38212914  0.64187266  1
  O  O23  1  0.69811720  0.74357664  0.95432638  1
  O  O24  1  0.25642336  0.30188280  0.04567362  1
  O  O25  1  0.74357664  0.69811720  0.54567362  1
  O  O26  1  0.30188280  0.25642336  0.45432638  1
  O  O27  1  0.78804624  0.61787086  0.14187266  1
  O  O28  1  0.38212914  0.21195376  0.85812734  1
  O  O29  1  0.84150741  0.61308433  0.85212996  1
  O  O30  1  0.38691567  0.15849259  0.14787004  1
  O  O31  1  0.73950879  0.41861025  0.36309593  1
  O  O32  1  0.58138975  0.26049121  0.63690407  1
  O  O33  1  0.47247244  0.01698734  0.85852876  1
  O  O34  1  0.98301266  0.52752756  0.14147124  1
  O  O35  1  0.93226648  0.22330851  0.84831781  1
  O  O36  1  0.77669149  0.06773352  0.15168219  1
  O  O37  1  0.93789136  0.06210864  0.50000000  1
