# generated using pymatgen
data_CsSiTe3
_symmetry_space_group_name_H-M   'P 1'
_cell_length_a   8.35938300
_cell_length_b   8.35938290
_cell_length_c   13.68171968
_cell_angle_alpha   95.45551800
_cell_angle_beta   95.45551795
_cell_angle_gamma   117.62240564
_symmetry_Int_Tables_number   1
_chemical_formula_structural   CsSiTe3
_chemical_formula_sum   'Cs4 Si4 Te12'
_cell_volume   832.70035884
_cell_formula_units_Z   4
loop_
 _symmetry_equiv_pos_site_id
 _symmetry_equiv_pos_as_xyz
  1  'x, y, z'
loop_
 _atom_site_type_symbol
 _atom_site_label
 _atom_site_symmetry_multiplicity
 _atom_site_fract_x
 _atom_site_fract_y
 _atom_site_fract_z
 _atom_site_occupancy
  Cs  Cs0  1  0.72397833  0.22303354  0.81048374  1
  Cs  Cs1  1  0.47974923  0.65875795  0.58697117  1
  Cs  Cs2  1  0.22303354  0.72397833  0.31048374  1
  Cs  Cs3  1  0.65875795  0.47974923  0.08697117  1
  Si  Si4  1  0.16917523  0.05667902  0.61130840  1
  Si  Si5  1  0.04873131  0.89966744  0.86739501  1
  Si  Si6  1  0.89966744  0.04873131  0.36739501  1
  Si  Si7  1  0.05667902  0.16917523  0.11130840  1
  Te  Te8  1  0.20678319  0.19773489  0.79496362  1
  Te  Te9  1  0.14211826  0.68669300  0.77538363  1
  Te  Te10  1  0.45780256  0.15334526  0.54520942  1
  Te  Te11  1  0.96826942  0.70429359  0.58481495  1
  Te  Te12  1  0.15334526  0.45780256  0.04520942  1
  Te  Te13  1  0.71249849  0.76803091  0.86713942  1
  Te  Te14  1  0.19773489  0.20678319  0.29496362  1
  Te  Te15  1  0.76803091  0.71249849  0.36713942  1
  Te  Te16  1  0.68669300  0.14211826  0.27538363  1
  Te  Te17  1  0.19928438  0.97137400  0.04843064  1
  Te  Te18  1  0.97137400  0.19928438  0.54843064  1
  Te  Te19  1  0.70429359  0.96826942  0.08481495  1
