# generated using pymatgen
data_Cs3Ge4Au
_symmetry_space_group_name_H-M   'P 1'
_cell_length_a   6.24851438
_cell_length_b   7.34241766
_cell_length_c   13.28564118
_cell_angle_alpha   90.00000000
_cell_angle_beta   90.00000000
_cell_angle_gamma   90.00000000
_symmetry_Int_Tables_number   1
_chemical_formula_structural   Cs3Ge4Au
_chemical_formula_sum   'Cs6 Ge8 Au2'
_cell_volume   609.53461981
_cell_formula_units_Z   2
loop_
 _symmetry_equiv_pos_site_id
 _symmetry_equiv_pos_as_xyz
  1  'x, y, z'
loop_
 _atom_site_type_symbol
 _atom_site_label
 _atom_site_symmetry_multiplicity
 _atom_site_fract_x
 _atom_site_fract_y
 _atom_site_fract_z
 _atom_site_occupancy
  Cs  Cs0  1  0.84255299  0.75000000  0.51619062  1
  Cs  Cs1  1  0.84255299  0.75000000  0.98380938  1
  Cs  Cs2  1  0.42662760  0.75000000  0.75000000  1
  Cs  Cs3  1  0.15744701  0.25000000  0.48380938  1
  Cs  Cs4  1  0.15744701  0.25000000  0.01619062  1
  Cs  Cs5  1  0.57337240  0.25000000  0.25000000  1
  Ge  Ge6  1  0.06692510  0.56226538  0.25000000  1
  Ge  Ge7  1  0.33668291  0.75000000  0.35453251  1
  Ge  Ge8  1  0.66331709  0.25000000  0.85453251  1
  Ge  Ge9  1  0.06692510  0.93773462  0.25000000  1
  Ge  Ge10  1  0.93307490  0.06226538  0.75000000  1
  Ge  Ge11  1  0.66331709  0.25000000  0.64546749  1
  Ge  Ge12  1  0.33668291  0.75000000  0.14546749  1
  Ge  Ge13  1  0.93307490  0.43773462  0.75000000  1
  Au  Au14  1  0.70030103  0.75000000  0.25000000  1
  Au  Au15  1  0.29969897  0.25000000  0.75000000  1
