# generated using pymatgen
data_NbI3O
_symmetry_space_group_name_H-M   'P 1'
_cell_length_a   4.00830838
_cell_length_b   8.05381892
_cell_length_c   11.42854140
_cell_angle_alpha   83.47488984
_cell_angle_beta   79.89382274
_cell_angle_gamma   75.59098985
_symmetry_Int_Tables_number   1
_chemical_formula_structural   NbI3O
_chemical_formula_sum   'Nb2 I6 O2'
_cell_volume   350.84022315
_cell_formula_units_Z   2
loop_
 _symmetry_equiv_pos_site_id
 _symmetry_equiv_pos_as_xyz
  1  'x, y, z'
loop_
 _atom_site_type_symbol
 _atom_site_label
 _atom_site_symmetry_multiplicity
 _atom_site_fract_x
 _atom_site_fract_y
 _atom_site_fract_z
 _atom_site_occupancy
  I  I0  1  0.67971033  0.36107176  0.28602594  1
  I  I1  1  0.90157074  0.23421187  0.95738647  1
  I  I2  1  0.11203653  0.17112913  0.61230189  1
  I  I3  1  0.09328256  0.76585201  0.04252780  1
  O  O4  1  0.62975370  0.94976745  0.81157398  1
  O  O5  1  0.39108054  0.05023168  0.18831998  1
  Nb  Nb6  1  0.93045371  0.05253278  0.19582661  1
  Nb  Nb7  1  0.17885912  0.94744010  0.80411317  1
  I  I8  1  0.32720583  0.63872189  0.71415010  1
  I  I9  1  0.89524694  0.82904133  0.38777406  1
