# generated using pymatgen
data_Ga2H6(SeO4)3
_symmetry_space_group_name_H-M   'P 1'
_cell_length_a   8.62331691
_cell_length_b   8.62331672
_cell_length_c   8.62331743
_cell_angle_alpha   65.96884524
_cell_angle_beta   65.96884589
_cell_angle_gamma   65.96884450
_symmetry_Int_Tables_number   1
_chemical_formula_structural   Ga2H6(SeO4)3
_chemical_formula_sum   'Ga4 H12 Se6 O24'
_cell_volume   512.01340447
_cell_formula_units_Z   2
loop_
 _symmetry_equiv_pos_site_id
 _symmetry_equiv_pos_as_xyz
  1  'x, y, z'
loop_
 _atom_site_type_symbol
 _atom_site_label
 _atom_site_symmetry_multiplicity
 _atom_site_fract_x
 _atom_site_fract_y
 _atom_site_fract_z
 _atom_site_occupancy
  Ga  Ga0  1  0.12310862  0.12310862  0.12310862  1
  Ga  Ga1  1  0.62310862  0.62310862  0.62310862  1
  Ga  Ga2  1  0.35893099  0.35893099  0.35893099  1
  Ga  Ga3  1  0.85893099  0.85893099  0.85893099  1
  Se  Se4  1  0.46479844  0.91816676  0.84729108  1
  Se  Se5  1  0.84729108  0.46479844  0.91816676  1
  Se  Se6  1  0.91816676  0.84729108  0.46479844  1
  Se  Se7  1  0.41816676  0.96479844  0.34729108  1
  Se  Se8  1  0.34729108  0.41816676  0.96479844  1
  Se  Se9  1  0.96479844  0.34729108  0.41816676  1
  O  O10  1  0.26296038  0.91689776  0.01821948  1
  O  O11  1  0.01821948  0.26296038  0.91689776  1
  O  O12  1  0.91689776  0.01821948  0.26296038  1
  O  O13  1  0.41689776  0.76296038  0.51821948  1
  O  O14  1  0.51821948  0.41689776  0.76296038  1
  O  O15  1  0.76296038  0.51821948  0.41689776  1
  O  O16  1  0.32957217  0.21789369  0.98408338  1
  O  O17  1  0.98408338  0.32957217  0.21789369  1
  O  O18  1  0.21789369  0.98408338  0.32957217  1
  O  O19  1  0.71789369  0.82957217  0.48408338  1
  O  O20  1  0.48408338  0.71789369  0.82957217  1
  O  O21  1  0.82957217  0.48408338  0.71789369  1
  O  O22  1  0.61322345  0.84769025  0.96745681  1
  O  O23  1  0.96745681  0.61322345  0.84769025  1
  O  O24  1  0.84769025  0.96745681  0.61322345  1
  O  O25  1  0.34769025  0.11322345  0.46745681  1
  O  O26  1  0.46745681  0.34769025  0.11322345  1
  O  O27  1  0.11322345  0.46745681  0.34769025  1
  O  O28  1  0.28469192  0.37860652  0.61017095  1
  O  O29  1  0.61017095  0.28469192  0.37860652  1
  O  O30  1  0.37860652  0.61017095  0.28469192  1
  O  O31  1  0.87860652  0.78469192  0.11017095  1
  O  O32  1  0.11017095  0.87860652  0.78469192  1
  O  O33  1  0.78469192  0.11017095  0.87860652  1
  H  H34  1  0.18876813  0.33242881  0.71023933  1
  H  H35  1  0.71023933  0.18876813  0.33242880  1
  H  H36  1  0.33242881  0.71023933  0.18876813  1
  H  H37  1  0.83242881  0.68876813  0.21023933  1
  H  H38  1  0.21023933  0.83242881  0.68876813  1
  H  H39  1  0.68876813  0.21023933  0.83242881  1
  H  H40  1  0.37724056  0.36180084  0.65969268  1
  H  H41  1  0.65969268  0.37724056  0.36180084  1
  H  H42  1  0.36180084  0.65969268  0.37724056  1
  H  H43  1  0.86180084  0.87724056  0.15969268  1
  H  H44  1  0.15969268  0.86180084  0.87724056  1
  H  H45  1  0.87724056  0.15969268  0.86180084  1
