# generated using pymatgen
data_Sr2CuClO2
_symmetry_space_group_name_H-M   'P 1'
_cell_length_a   4.03741136
_cell_length_b   4.03741163
_cell_length_c   27.80849201
_cell_angle_alpha   90.00000000
_cell_angle_beta   90.00000000
_cell_angle_gamma   119.99999775
_symmetry_Int_Tables_number   1
_chemical_formula_structural   Sr2CuClO2
_chemical_formula_sum   'Sr6 Cu3 Cl3 O6'
_cell_volume   392.56729103
_cell_formula_units_Z   3
loop_
 _symmetry_equiv_pos_site_id
 _symmetry_equiv_pos_as_xyz
  1  'x, y, z'
loop_
 _atom_site_type_symbol
 _atom_site_label
 _atom_site_symmetry_multiplicity
 _atom_site_fract_x
 _atom_site_fract_y
 _atom_site_fract_z
 _atom_site_occupancy
  Sr  Sr0  1  0.32738200  0.98718878  0.57727535  1
  Sr  Sr1  1  0.65980678  0.67261800  0.24394235  1
  Sr  Sr2  1  0.34019322  0.01281122  0.08939165  1
  Sr  Sr3  1  0.67261800  0.65980678  0.75605765  1
  Sr  Sr4  1  0.98718878  0.32738200  0.42272465  1
  Sr  Sr5  1  0.01281122  0.34019322  0.91060835  1
  Cu  Cu6  1  0.00000000  0.32383143  0.66666700  1
  Cu  Cu7  1  0.67616857  0.67616857  0.00000000  1
  Cu  Cu8  1  0.32383143  0.00000000  0.33333300  1
  Cl  Cl9  1  0.00000000  0.34830694  0.16666700  1
  Cl  Cl10  1  0.65169306  0.65169306  0.50000000  1
  Cl  Cl11  1  0.34830694  0.00000000  0.83333300  1
  O  O12  1  0.99355088  0.32001150  0.60122994  1
  O  O13  1  0.67998850  0.67353938  0.93456394  1
  O  O14  1  0.32001150  0.99355088  0.39877006  1
  O  O15  1  0.00644912  0.32646062  0.73210306  1
  O  O16  1  0.67353938  0.67998850  0.06543606  1
  O  O17  1  0.32646062  0.00644912  0.26789694  1
