# generated using pymatgen
data_Li3SiNiO5
_symmetry_space_group_name_H-M   'P 1'
_cell_length_a   5.00696548
_cell_length_b   5.75887014
_cell_length_c   6.32753888
_cell_angle_alpha   105.56562492
_cell_angle_beta   96.44477661
_cell_angle_gamma   108.13075764
_symmetry_Int_Tables_number   1
_chemical_formula_structural   Li3SiNiO5
_chemical_formula_sum   'Li6 Si2 Ni2 O10'
_cell_volume   163.16997165
_cell_formula_units_Z   2
loop_
 _symmetry_equiv_pos_site_id
 _symmetry_equiv_pos_as_xyz
  1  'x, y, z'
loop_
 _atom_site_type_symbol
 _atom_site_label
 _atom_site_symmetry_multiplicity
 _atom_site_fract_x
 _atom_site_fract_y
 _atom_site_fract_z
 _atom_site_occupancy
  Li  Li0  1  0.79609082  0.59946497  0.60032974  1
  Li  Li1  1  0.40000000  0.30000000  0.80000000  1
  Li  Li2  1  0.59353003  0.19635197  0.19566415  1
  Li  Li3  1  0.40000000  0.80000000  0.80000000  1
  Li  Li4  1  0.20646997  0.40364803  0.40433585  1
  Li  Li5  1  0.00390918  0.00053503  0.99967026  1
  Si  Si6  1  0.80143843  0.10229038  0.60170906  1
  Si  Si7  1  0.99856157  0.49770962  0.99829094  1
  Ni  Ni8  1  0.59988611  0.69857349  0.20011285  1
  Ni  Ni9  1  0.20011389  0.90142651  0.39988715  1
  O  O10  1  0.91694835  0.55496827  0.27443820  1
  O  O11  1  0.88305165  0.04503173  0.32556180  1
  O  O12  1  0.74117357  0.16821148  0.88625023  1
  O  O13  1  0.72928073  0.63348547  0.92731889  1
  O  O14  1  0.52770147  0.77931299  0.50290530  1
  O  O15  1  0.52064199  0.21658277  0.50643222  1
  O  O16  1  0.05882643  0.43178852  0.71374977  1
  O  O17  1  0.27935801  0.38341723  0.09356778  1
  O  O18  1  0.27229853  0.82068701  0.09709470  1
  O  O19  1  0.07071927  0.96651453  0.67268111  1
