# generated using pymatgen
data_Li7NbO6
_symmetry_space_group_name_H-M   'P 1'
_cell_length_a   5.60801113
_cell_length_b   5.60324634
_cell_length_c   5.88875496
_cell_angle_alpha   61.68502656
_cell_angle_beta   61.64533221
_cell_angle_gamma   60.08303395
_symmetry_Int_Tables_number   1
_chemical_formula_structural   Li7NbO6
_chemical_formula_sum   'Li7 Nb1 O6'
_cell_volume   134.12993884
_cell_formula_units_Z   1
loop_
 _symmetry_equiv_pos_site_id
 _symmetry_equiv_pos_as_xyz
  1  'x, y, z'
loop_
 _atom_site_type_symbol
 _atom_site_label
 _atom_site_symmetry_multiplicity
 _atom_site_fract_x
 _atom_site_fract_y
 _atom_site_fract_z
 _atom_site_occupancy
  Li  Li0  1  0.12560875  0.49271347  0.65614623  1
  Li  Li1  1  0.49113848  0.23488446  0.34249387  1
  Li  Li2  1  0.23561891  0.92840602  0.34526258  1
  Li  Li3  1  0.66167008  0.64948887  0.03497788  1
  Li  Li4  1  0.72876063  0.12019038  0.65511756  1
  Li  Li5  1  0.49777125  0.72866162  0.65517388  1
  Li  Li6  1  0.92887362  0.49070506  0.34844327  1
  Nb  Nb7  1  0.00207457  0.99949565  0.99821740  1
  O  O8  1  0.23265961  0.63862055  0.24447666  1
  O  O9  1  0.37758136  0.07088115  0.75622029  1
  O  O10  1  0.07181130  0.79500499  0.75628481  1
  O  O11  1  0.88531388  0.23130884  0.24548976  1
  O  O12  1  0.64047112  0.88339001  0.24424830  1
  O  O13  1  0.79664642  0.37724894  0.75784752  1
