# generated using pymatgen
data_Li5VCr3O8
_symmetry_space_group_name_H-M   'P 1'
_cell_length_a   5.99920228
_cell_length_b   5.99923172
_cell_length_c   9.92874914
_cell_angle_alpha   89.99973544
_cell_angle_beta   90.00023780
_cell_angle_gamma   120.00023696
_symmetry_Int_Tables_number   1
_chemical_formula_structural   Li5VCr3O8
_chemical_formula_sum   'Li10 V2 Cr6 O16'
_cell_volume   309.46623799
_cell_formula_units_Z   2
loop_
 _symmetry_equiv_pos_site_id
 _symmetry_equiv_pos_as_xyz
  1  'x, y, z'
loop_
 _atom_site_type_symbol
 _atom_site_label
 _atom_site_symmetry_multiplicity
 _atom_site_fract_x
 _atom_site_fract_y
 _atom_site_fract_z
 _atom_site_occupancy
  Li  Li0  1  0.19529669  0.80464863  0.04729537  1
  Li  Li1  1  0.60934128  0.80467040  0.04730385  1
  Li  Li2  1  0.33330725  0.66664882  0.26139436  1
  Li  Li3  1  0.19529684  0.39063593  0.04730528  1
  Li  Li4  1  0.80465949  0.60935424  0.54730453  1
  Li  Li5  1  -0.00000506  -0.00000102  0.47109973  1
  Li  Li6  1  0.66665982  0.33334489  0.76140292  1
  Li  Li7  1  0.39065761  0.19534334  0.54730932  1
  Li  Li8  1  0.99999241  0.00000038  0.97109272  1
  Li  Li9  1  0.80466720  0.19531986  0.54730742  1
  V  V10  1  0.33331696  0.66665937  0.51146530  1
  V  V11  1  0.66663835  0.33332296  0.01147518  1
  Cr  Cr12  1  0.16817133  0.83186689  0.77283841  1
  Cr  Cr13  1  0.66370080  0.83185520  0.77284415  1
  Cr  Cr14  1  0.16815978  0.33634174  0.77285273  1
  Cr  Cr15  1  0.83194641  0.66393300  0.27282530  1
  Cr  Cr16  1  0.33608109  0.16800232  0.27279646  1
  Cr  Cr17  1  0.83194373  0.16806426  0.27284519  1
  O  O18  1  0.15976532  0.84019402  0.38825838  1
  O  O19  1  0.49206786  0.98416596  0.65570874  1
  O  O20  1  0.33332307  0.66668168  0.88783876  1
  O  O21  1  0.68040894  0.84019015  0.38826397  1
  O  O22  1  0.01583380  0.50793786  0.65571032  1
  O  O23  1  0.49206303  0.50792941  0.65571432  1
  O  O24  1  0.15977030  0.31957275  0.38825829  1
  O  O25  1  0.84020413  0.68041999  0.88824930  1
  O  O26  1  0.50789976  0.49204953  0.15572911  1
  O  O27  1  0.66664157  0.33331523  0.38785069  1
  O  O28  1  0.98410834  0.49203917  0.15572805  1
  O  O29  1  0.99997181  0.99997626  0.16097732  1
  O  O30  1  0.31957449  0.15981204  0.88825048  1
  O  O31  1  0.99999776  0.00002994  0.66094561  1
  O  O32  1  0.50789991  0.01584591  0.15572849  1
  O  O33  1  0.84020493  0.15980889  0.88825594  1
