# generated using pymatgen
data_NaGaSiO4
_symmetry_space_group_name_H-M   'P 1'
_cell_length_a   8.84896051
_cell_length_b   8.84896074
_cell_length_c   8.36487699
_cell_angle_alpha   90.00000000
_cell_angle_beta   90.00000000
_cell_angle_gamma   119.99999919
_symmetry_Int_Tables_number   1
_chemical_formula_structural   NaGaSiO4
_chemical_formula_sum   'Na6 Ga6 Si6 O24'
_cell_volume   567.25028048
_cell_formula_units_Z   6
loop_
 _symmetry_equiv_pos_site_id
 _symmetry_equiv_pos_as_xyz
  1  'x, y, z'
loop_
 _atom_site_type_symbol
 _atom_site_label
 _atom_site_symmetry_multiplicity
 _atom_site_fract_x
 _atom_site_fract_y
 _atom_site_fract_z
 _atom_site_occupancy
  Na  Na0  1  0.66666700  0.33333300  0.06342438  1
  Na  Na1  1  0.00000000  0.00000000  0.06866045  1
  Na  Na2  1  0.33333300  0.66666700  0.56342438  1
  Na  Na3  1  0.66666700  0.33333300  0.49095581  1
  Na  Na4  1  0.00000000  0.00000000  0.56866045  1
  Na  Na5  1  0.33333300  0.66666700  -0.00904419  1
  Ga  Ga6  1  0.31519862  0.34272443  0.25026455  1
  Ga  Ga7  1  0.68480138  0.65727557  0.75026455  1
  Ga  Ga8  1  0.02752581  0.68480138  0.25026455  1
  Ga  Ga9  1  0.65727557  0.97247419  0.25026455  1
  Ga  Ga10  1  0.97247419  0.31519862  0.75026455  1
  Ga  Ga11  1  0.34272443  0.02752581  0.75026455  1
  Si  Si12  1  0.97530877  0.31699767  0.36519720  1
  Si  Si13  1  0.68300233  0.65831110  0.36519720  1
  Si  Si14  1  0.31699767  0.34168890  0.86519720  1
  Si  Si15  1  0.65831110  0.97530877  0.86519720  1
  Si  Si16  1  0.34168890  0.02469123  0.36519720  1
  Si  Si17  1  0.02469123  0.68300233  0.86519720  1
  O  O18  1  0.40918827  0.22053209  0.87973020  1
  O  O19  1  0.61878179  0.88626581  0.04409253  1
  O  O20  1  0.18865617  0.40918827  0.37973020  1
  O  O21  1  0.59081173  0.77946791  0.37973020  1
  O  O22  1  0.81134383  0.59081173  0.87973020  1
  O  O23  1  0.44629187  0.53340601  0.78249986  1
  O  O24  1  0.86681971  0.76149992  0.26423544  1
  O  O25  1  0.08711414  0.55370813  0.78249986  1
  O  O26  1  0.26748402  0.38121821  0.04409253  1
  O  O27  1  0.89468021  0.13318029  0.26423544  1
  O  O28  1  0.77946791  0.18865617  0.87973020  1
  O  O29  1  0.38121821  0.11373419  0.54409253  1
  O  O30  1  0.76149992  0.89468021  0.76423544  1
  O  O31  1  0.22053209  0.81134383  0.37973020  1
  O  O32  1  0.11373419  0.73251598  0.04409253  1
  O  O33  1  0.10531979  0.86681971  0.76423544  1
  O  O34  1  0.55370813  0.46659399  0.28249986  1
  O  O35  1  0.91288586  0.44629187  0.28249986  1
  O  O36  1  0.46659399  0.91288586  0.78249986  1
  O  O37  1  0.88626581  0.26748402  0.54409253  1
  O  O38  1  0.23850008  0.10531979  0.26423544  1
  O  O39  1  0.13318029  0.23850008  0.76423544  1
  O  O40  1  0.53340601  0.08711414  0.28249986  1
  O  O41  1  0.73251598  0.61878179  0.54409253  1
