# generated using pymatgen
data_Li3FeF6
_symmetry_space_group_name_H-M   'P 1'
_cell_length_a   9.82857784
_cell_length_b   8.59677155
_cell_length_c   5.07852418
_cell_angle_alpha   90.00000000
_cell_angle_beta   90.00000000
_cell_angle_gamma   90.00000000
_symmetry_Int_Tables_number   1
_chemical_formula_structural   Li3FeF6
_chemical_formula_sum   'Li12 Fe4 F24'
_cell_volume   429.10501684
_cell_formula_units_Z   4
loop_
 _symmetry_equiv_pos_site_id
 _symmetry_equiv_pos_as_xyz
  1  'x, y, z'
loop_
 _atom_site_type_symbol
 _atom_site_label
 _atom_site_symmetry_multiplicity
 _atom_site_fract_x
 _atom_site_fract_y
 _atom_site_fract_z
 _atom_site_occupancy
  Li  Li0  1  0.10574573  0.45530322  0.49790633  1
  Li  Li1  1  0.12562483  0.85254358  0.00824620  1
  Li  Li2  1  0.14620217  0.04697810  0.50196615  1
  Li  Li3  1  0.35379783  0.54697810  0.00196615  1
  Li  Li4  1  0.37437517  0.35254358  0.50824620  1
  Li  Li5  1  0.39425427  0.95530322  0.99790633  1
  Li  Li6  1  0.60574573  0.04469678  0.49790633  1
  Li  Li7  1  0.62562483  0.64745642  0.00824620  1
  Li  Li8  1  0.64620217  0.45302190  0.50196615  1
  Li  Li9  1  0.85379783  0.95302190  0.00196615  1
  Li  Li10  1  0.87437517  0.14745642  0.50824620  1
  Li  Li11  1  0.89425427  0.54469678  0.99790633  1
  Fe  Fe12  1  0.12769696  0.24063976  0.99976234  1
  Fe  Fe13  1  0.37230304  0.74063976  0.49976234  1
  Fe  Fe14  1  0.62769696  0.25936024  0.99976234  1
  Fe  Fe15  1  0.87230304  0.75936024  0.49976234  1
  F  F16  1  0.00889342  0.08533632  0.82009943  1
  F  F17  1  0.02186903  0.24487597  0.32432529  1
  F  F18  1  0.02456020  0.40891744  0.84184877  1
  F  F19  1  0.22663418  0.05881005  0.14590891  1
  F  F20  1  0.23902065  0.23132867  0.68277476  1
  F  F21  1  0.24876474  0.38800793  0.18437382  1
  F  F22  1  0.25123526  0.88800793  0.68437382  1
  F  F23  1  0.26097935  0.73132867  0.18277476  1
  F  F24  1  0.27336582  0.55881005  0.64590891  1
  F  F25  1  0.47543980  0.90891744  0.34184877  1
  F  F26  1  0.47813097  0.74487597  0.82432529  1
  F  F27  1  0.49110658  0.58533632  0.32009943  1
  F  F28  1  0.50889342  0.41466368  0.82009943  1
  F  F29  1  0.52186903  0.25512403  0.32432529  1
  F  F30  1  0.52456020  0.09108256  0.84184877  1
  F  F31  1  0.72663418  0.44118995  0.14590891  1
  F  F32  1  0.73902065  0.26867133  0.68277476  1
  F  F33  1  0.74876474  0.11199207  0.18437382  1
  F  F34  1  0.75123526  0.61199207  0.68437382  1
  F  F35  1  0.76097935  0.76867133  0.18277476  1
  F  F36  1  0.77336582  0.94118995  0.64590891  1
  F  F37  1  0.97543980  0.59108256  0.34184877  1
  F  F38  1  0.97813097  0.75512403  0.82432529  1
  F  F39  1  0.99110658  0.91466368  0.32009943  1
