# generated using pymatgen
data_ScGaO3
_symmetry_space_group_name_H-M   'P 1'
_cell_length_a   5.79015836
_cell_length_b   5.79013655
_cell_length_c   11.57084411
_cell_angle_alpha   89.99941613
_cell_angle_beta   90.00122085
_cell_angle_gamma   119.99925598
_symmetry_Int_Tables_number   1
_chemical_formula_structural   ScGaO3
_chemical_formula_sum   'Sc6 Ga6 O18'
_cell_volume   335.95273232
_cell_formula_units_Z   6
loop_
 _symmetry_equiv_pos_site_id
 _symmetry_equiv_pos_as_xyz
  1  'x, y, z'
loop_
 _atom_site_type_symbol
 _atom_site_label
 _atom_site_symmetry_multiplicity
 _atom_site_fract_x
 _atom_site_fract_y
 _atom_site_fract_z
 _atom_site_occupancy
  Sc  Sc0  1  0.33331870  0.66667552  0.23676503  1
  Sc  Sc1  1  -0.00000382  0.00001270  0.27568685  1
  Sc  Sc2  1  0.99998343  0.99998777  0.77568945  1
  Sc  Sc3  1  0.33331935  0.66665350  0.73676198  1
  Sc  Sc4  1  0.66664798  0.33331332  0.73676291  1
  Sc  Sc5  1  0.66666150  0.33334694  0.23677046  1
  Ga  Ga6  1  0.99999206  0.66588539  0.50294581  1
  Ga  Ga7  1  -0.00000174  0.33411621  0.00294433  1
  Ga  Ga8  1  0.33409456  0.33409555  0.50294783  1
  Ga  Ga9  1  0.66589221  0.66590104  0.00294832  1
  Ga  Ga10  1  0.33411394  0.00001083  0.00294225  1
  Ga  Ga11  1  0.66588070  0.99998777  0.50294791  1
  O  O12  1  0.99997981  0.69619403  0.67089448  1
  O  O13  1  0.99999477  0.63580976  0.33790873  1
  O  O14  1  0.99999342  0.36419161  0.83790097  1
  O  O15  1  0.99999948  0.30380547  0.17090073  1
  O  O16  1  0.33333800  0.66667815  0.02800412  1
  O  O17  1  0.00000447  0.99999887  0.47433998  1
  O  O18  1  0.00000422  0.00001392  0.97432216  1
  O  O19  1  0.33331762  0.66664792  0.52800032  1
  O  O20  1  0.30378967  0.30378332  0.67089383  1
  O  O21  1  0.36419118  0.36421313  0.33790932  1
  O  O22  1  0.30379114  0.00000671  0.17090073  1
  O  O23  1  0.63578752  0.63578932  0.83790685  1
  O  O24  1  0.69619897  0.69621904  0.17090103  1
  O  O25  1  0.36419343  0.99999061  0.83790013  1
  O  O26  1  0.66665949  0.33332777  0.52799884  1
  O  O27  1  0.66666457  0.33334219  0.02800264  1
  O  O28  1  0.63579767  0.00000869  0.33790662  1
  O  O29  1  0.69619470  0.99999192  0.67089640  1
