# generated using pymatgen
data_HgSeO4
_symmetry_space_group_name_H-M   'P 1'
_cell_length_a   5.09085510
_cell_length_b   5.17040437
_cell_length_c   6.83950145
_cell_angle_alpha   90.00000000
_cell_angle_beta   90.00000000
_cell_angle_gamma   90.00000000
_symmetry_Int_Tables_number   1
_chemical_formula_structural   HgSeO4
_chemical_formula_sum   'Hg2 Se2 O8'
_cell_volume   180.02784876
_cell_formula_units_Z   2
loop_
 _symmetry_equiv_pos_site_id
 _symmetry_equiv_pos_as_xyz
  1  'x, y, z'
loop_
 _atom_site_type_symbol
 _atom_site_label
 _atom_site_symmetry_multiplicity
 _atom_site_fract_x
 _atom_site_fract_y
 _atom_site_fract_z
 _atom_site_occupancy
  O  O0  1  0.70186282  0.30008759  0.50000000  1
  O  O1  1  0.29813718  0.80008759  0.00000000  1
  O  O2  1  0.34293102  0.91594708  0.50000000  1
  O  O3  1  0.65706898  0.41594708  0.00000000  1
  O  O4  1  0.81612064  0.83422026  0.69238077  1
  O  O5  1  0.18387936  0.33422026  0.80761923  1
  O  O6  1  0.18387936  0.33422026  0.19238077  1
  O  O7  1  0.81612064  0.83422026  0.30761923  1
  Se  Se8  1  0.66503232  0.97931774  0.50000000  1
  Se  Se9  1  0.33496768  0.47931774  0.00000000  1
  Hg  Hg10  1  0.13968600  0.50800707  0.50000000  1
  Hg  Hg11  1  0.86031400  0.00800707  0.00000000  1
