# generated using pymatgen
data_SrLiSb
_symmetry_space_group_name_H-M   'P 1'
_cell_length_a   4.84492598
_cell_length_b   8.07711054
_cell_length_c   8.52081318
_cell_angle_alpha   90.00000000
_cell_angle_beta   90.00000000
_cell_angle_gamma   90.00000000
_symmetry_Int_Tables_number   1
_chemical_formula_structural   SrLiSb
_chemical_formula_sum   'Sr4 Li4 Sb4'
_cell_volume   333.44500517
_cell_formula_units_Z   4
loop_
 _symmetry_equiv_pos_site_id
 _symmetry_equiv_pos_as_xyz
  1  'x, y, z'
loop_
 _atom_site_type_symbol
 _atom_site_label
 _atom_site_symmetry_multiplicity
 _atom_site_fract_x
 _atom_site_fract_y
 _atom_site_fract_z
 _atom_site_occupancy
  Li  Li0  1  0.75000000  0.84248637  0.07487744  1
  Li  Li1  1  0.25000000  0.15751363  0.92512256  1
  Li  Li2  1  0.75000000  0.34248637  0.42512256  1
  Li  Li3  1  0.25000000  0.65751363  0.57487744  1
  Sr  Sr4  1  0.75000000  0.99601526  0.70644720  1
  Sr  Sr5  1  0.25000000  0.00398474  0.29355280  1
  Sr  Sr6  1  0.75000000  0.49601526  0.79355280  1
  Sr  Sr7  1  0.25000000  0.50398474  0.20644720  1
  Sb  Sb8  1  0.25000000  0.77719813  0.90567199  1
  Sb  Sb9  1  0.75000000  0.22280187  0.09432801  1
  Sb  Sb10  1  0.25000000  0.27719813  0.59432801  1
  Sb  Sb11  1  0.75000000  0.72280187  0.40567199  1
