# generated using pymatgen
data_Li8SeN2
_symmetry_space_group_name_H-M   'P 1'
_cell_length_a   7.08228686
_cell_length_b   7.08228686
_cell_length_c   7.08228686
_cell_angle_alpha   119.89127806
_cell_angle_beta   90.18841530
_cell_angle_gamma   119.89127806
_symmetry_Int_Tables_number   1
_chemical_formula_structural   Li8SeN2
_chemical_formula_sum   'Li16 Se2 N4'
_cell_volume   251.60316714
_cell_formula_units_Z   2
loop_
 _symmetry_equiv_pos_site_id
 _symmetry_equiv_pos_as_xyz
  1  'x, y, z'
loop_
 _atom_site_type_symbol
 _atom_site_label
 _atom_site_symmetry_multiplicity
 _atom_site_fract_x
 _atom_site_fract_y
 _atom_site_fract_z
 _atom_site_occupancy
  Li  Li0  1  0.61371952  0.50000000  0.11371952  1
  Li  Li1  1  0.73567055  0.04421903  0.15721820  1
  Li  Li2  1  0.11299917  0.42154765  0.15721820  1
  Li  Li3  1  0.65420539  0.34546169  0.30874470  1
  Li  Li4  1  0.96328301  0.65453831  0.30874470  1
  Li  Li5  1  0.36371952  0.00000000  0.36371952  1
  Li  Li6  1  0.55874470  0.84546169  0.40420539  1
  Li  Li7  1  0.94145152  0.07845235  0.48567055  1
  Li  Li8  1  0.40721820  0.54421903  0.48567055  1
  Li  Li9  1  0.03663067  0.50000000  0.53663067  1
  Li  Li10  1  0.73567055  0.57845235  0.69145152  1
  Li  Li11  1  0.11299917  0.95578097  0.69145152  1
  Li  Li12  1  0.55874370  0.15453831  0.71328301  1
  Li  Li13  1  0.78662967  0.00000000  0.78662967  1
  Li  Li14  1  0.94145152  0.45578097  0.86299917  1
  Li  Li15  1  0.40721820  0.92154765  0.86299917  1
  Se  Se16  1  0.10052073  0.00000000  0.10052073  1
  Se  Se17  1  0.35052073  0.50000000  0.85052073  1
  N  N18  1  0.74973612  0.26878184  0.01851796  1
  N  N19  1  0.74973612  0.73121816  0.48095428  1
  N  N20  1  0.73095428  0.23121816  0.49973612  1
  N  N21  1  0.26851796  0.76878184  0.49973612  1
