# generated using pymatgen
data_KCrF3
_symmetry_space_group_name_H-M   'P 1'
_cell_length_a   6.04566756
_cell_length_b   6.04567052
_cell_length_c   6.06462232
_cell_angle_alpha   121.03671140
_cell_angle_beta   121.01707051
_cell_angle_gamma   88.04604740
_symmetry_Int_Tables_number   1
_chemical_formula_structural   KCrF3
_chemical_formula_sum   'K2 Cr2 F6'
_cell_volume   154.46519095
_cell_formula_units_Z   2
loop_
 _symmetry_equiv_pos_site_id
 _symmetry_equiv_pos_as_xyz
  1  'x, y, z'
loop_
 _atom_site_type_symbol
 _atom_site_label
 _atom_site_symmetry_multiplicity
 _atom_site_fract_x
 _atom_site_fract_y
 _atom_site_fract_z
 _atom_site_occupancy
  K  K0  1  0.75001858  0.75001968  0.00000571  1
  K  K1  1  0.24998142  0.24998032  0.99999429  1
  Cr  Cr2  1  0.00000000  0.50000000  0.50000000  1
  Cr  Cr3  1  0.50000000  0.00000000  0.50000000  1
  F  F4  1  0.26949740  0.76949889  0.50000072  1
  F  F5  1  0.73050260  0.23050111  0.49999928  1
  F  F6  1  0.25105804  0.26696071  0.51801743  1
  F  F7  1  0.74894196  0.73303929  0.48198257  1
  F  F8  1  0.76907928  0.25107197  0.02015300  1
  F  F9  1  0.23092072  0.74892803  0.97984700  1
