# generated using pymatgen
data_PNCl2
_symmetry_space_group_name_H-M   'P 1'
_cell_length_a   6.32929967
_cell_length_b   11.40364560
_cell_length_c   11.40364560
_cell_angle_alpha   90.00000000
_cell_angle_beta   90.00000000
_cell_angle_gamma   90.00000000
_symmetry_Int_Tables_number   1
_chemical_formula_structural   PNCl2
_chemical_formula_sum   'P8 N8 Cl16'
_cell_volume   823.08195860
_cell_formula_units_Z   8
loop_
 _symmetry_equiv_pos_site_id
 _symmetry_equiv_pos_as_xyz
  1  'x, y, z'
loop_
 _atom_site_type_symbol
 _atom_site_label
 _atom_site_symmetry_multiplicity
 _atom_site_fract_x
 _atom_site_fract_y
 _atom_site_fract_z
 _atom_site_occupancy
  P  P0  1  0.30710902  0.58135946  0.79084997  1
  P  P1  1  0.80710902  0.29084997  0.41864054  1
  P  P2  1  0.69289098  0.41864054  0.20915003  1
  P  P3  1  0.80710902  0.20915003  0.08135946  1
  P  P4  1  0.69289098  0.08135946  0.29084997  1
  P  P5  1  0.30710902  0.91864054  0.70915003  1
  P  P6  1  0.19289098  0.79084997  0.91864054  1
  P  P7  1  0.19289098  0.70915003  0.58135946  1
  N  N8  1  0.67482456  0.38087878  0.34242649  1
  N  N9  1  0.32517544  0.61912122  0.65757351  1
  N  N10  1  0.67482456  0.11912122  0.15757351  1
  N  N11  1  0.82517544  0.15757351  0.38087878  1
  N  N12  1  0.82517544  0.34242649  0.11912122  1
  N  N13  1  0.32517544  0.88087878  0.84242649  1
  N  N14  1  0.17482456  0.65757351  0.88087878  1
  N  N15  1  0.17482456  0.84242649  0.61912122  1
  Cl  Cl16  1  0.60668880  0.94402476  0.65372836  1
  Cl  Cl17  1  0.18238227  0.41880942  0.80053508  1
  Cl  Cl18  1  0.60668880  0.55597524  0.84627164  1
  Cl  Cl19  1  0.81761773  0.91880942  0.30053508  1
  Cl  Cl20  1  0.89331120  0.84627164  0.94402476  1
  Cl  Cl21  1  0.31761773  0.80053508  0.08119058  1
  Cl  Cl22  1  0.18238227  0.08119058  0.69946492  1
  Cl  Cl23  1  0.10668880  0.15372836  0.05597524  1
  Cl  Cl24  1  0.68238227  0.30053508  0.58119058  1
  Cl  Cl25  1  0.39331120  0.05597524  0.34627164  1
  Cl  Cl26  1  0.68238227  0.19946492  0.91880942  1
  Cl  Cl27  1  0.81761773  0.58119058  0.19946492  1
  Cl  Cl28  1  0.31761773  0.69946492  0.41880942  1
  Cl  Cl29  1  0.10668880  0.34627164  0.44402476  1
  Cl  Cl30  1  0.89331120  0.65372836  0.55597524  1
  Cl  Cl31  1  0.39331120  0.44402476  0.15372836  1
