# generated using pymatgen
data_Pr5AgS8
_symmetry_space_group_name_H-M   'P 1'
_cell_length_a   7.48605163
_cell_length_b   7.48605108
_cell_length_c   7.48605141
_cell_angle_alpha   109.75367502
_cell_angle_beta   109.75367800
_cell_angle_gamma   108.90777357
_symmetry_Int_Tables_number   1
_chemical_formula_structural   Pr5AgS8
_chemical_formula_sum   'Pr5 Ag1 S8'
_cell_volume   322.92751925
_cell_formula_units_Z   1
loop_
 _symmetry_equiv_pos_site_id
 _symmetry_equiv_pos_as_xyz
  1  'x, y, z'
loop_
 _atom_site_type_symbol
 _atom_site_label
 _atom_site_symmetry_multiplicity
 _atom_site_fract_x
 _atom_site_fract_y
 _atom_site_fract_z
 _atom_site_occupancy
  Ag  Ag0  1  0.87500000  0.12500000  0.75000000  1
  Pr  Pr1  1  0.11087714  0.74473451  0.86866021  1
  Pr  Pr2  1  0.25526549  0.62392570  0.36614263  1
  Pr  Pr3  1  0.37607430  0.24221693  0.63133979  1
  Pr  Pr4  1  0.75778307  0.88912286  0.13385737  1
  Pr  Pr5  1  0.62500000  0.37500000  0.25000000  1
  S  S6  1  0.14995738  0.14856329  0.14062400  1
  S  S7  1  0.50793929  0.00933338  0.35937600  1
  S  S8  1  0.37258184  0.51786817  0.00984075  1
  S  S9  1  0.63725891  0.62741816  0.64528633  1
  S  S10  1  0.48213183  0.99197257  0.85471367  1
  S  S11  1  0.99066662  0.85004262  0.49860591  1
  S  S12  1  0.85143671  0.49206071  1.00139409  1
  S  S13  1  0.00802743  0.36274109  0.49015925  1
