# generated using pymatgen
data_LiCrSnO4
_symmetry_space_group_name_H-M   'P 1'
_cell_length_a   6.10440680
_cell_length_b   6.10440680
_cell_length_c   8.54171332
_cell_angle_alpha   90.00000000
_cell_angle_beta   90.00000000
_cell_angle_gamma   90.00000000
_symmetry_Int_Tables_number   1
_chemical_formula_structural   LiCrSnO4
_chemical_formula_sum   'Li4 Cr4 Sn4 O16'
_cell_volume   318.29654631
_cell_formula_units_Z   4
loop_
 _symmetry_equiv_pos_site_id
 _symmetry_equiv_pos_as_xyz
  1  'x, y, z'
loop_
 _atom_site_type_symbol
 _atom_site_label
 _atom_site_symmetry_multiplicity
 _atom_site_fract_x
 _atom_site_fract_y
 _atom_site_fract_z
 _atom_site_occupancy
  Li  Li0  1  0.00000000  0.22755009  0.00000000  1
  Li  Li1  1  0.00000000  0.77244991  0.50000000  1
  Li  Li2  1  0.22755009  0.00000000  0.25000000  1
  Li  Li3  1  0.77244991  0.00000000  0.75000000  1
  Cr  Cr4  1  0.24139743  0.50000000  0.25000000  1
  Cr  Cr5  1  0.50000000  0.24139743  0.00000000  1
  Cr  Cr6  1  0.50000000  0.75860257  0.50000000  1
  Cr  Cr7  1  0.75860257  0.50000000  0.75000000  1
  Sn  Sn8  1  0.25468670  0.25468670  0.62500000  1
  Sn  Sn9  1  0.25468670  0.74531330  0.87500000  1
  Sn  Sn10  1  0.74531330  0.25468670  0.37500000  1
  Sn  Sn11  1  0.74531330  0.74531330  0.12500000  1
  O  O12  1  0.01777642  0.26313360  0.25255188  1
  O  O13  1  0.01777642  0.73686640  0.24744812  1
  O  O14  1  0.26313360  0.01777642  0.99744812  1
  O  O15  1  0.26313360  0.98222358  0.50255188  1
  O  O16  1  0.26317590  0.47882554  0.01364586  1
  O  O17  1  0.26317590  0.52117446  0.48635414  1
  O  O18  1  0.47882554  0.26317590  0.23635414  1
  O  O19  1  0.47882554  0.73682410  0.26364586  1
  O  O20  1  0.52117446  0.26317590  0.76364586  1
  O  O21  1  0.52117446  0.73682410  0.73635414  1
  O  O22  1  0.73682410  0.52117446  0.51364586  1
  O  O23  1  0.73682410  0.47882554  0.98635414  1
  O  O24  1  0.73686640  0.01777642  0.00255188  1
  O  O25  1  0.73686640  0.98222358  0.49744812  1
  O  O26  1  0.98222358  0.26313360  0.74744812  1
  O  O27  1  0.98222358  0.73686640  0.75255188  1
