# generated using pymatgen
data_Cr4OF11
_symmetry_space_group_name_H-M   'P 1'
_cell_length_a   5.09894845
_cell_length_b   5.32814149
_cell_length_c   8.74449847
_cell_angle_alpha   74.73790473
_cell_angle_beta   90.00000000
_cell_angle_gamma   61.41303375
_symmetry_Int_Tables_number   1
_chemical_formula_structural   Cr4OF11
_chemical_formula_sum   'Cr4 O1 F11'
_cell_volume   199.01385826
_cell_formula_units_Z   1
loop_
 _symmetry_equiv_pos_site_id
 _symmetry_equiv_pos_as_xyz
  1  'x, y, z'
loop_
 _atom_site_type_symbol
 _atom_site_label
 _atom_site_symmetry_multiplicity
 _atom_site_fract_x
 _atom_site_fract_y
 _atom_site_fract_z
 _atom_site_occupancy
  Cr  Cr0  1  0.74514361  0.51343759  0.25705988  1
  Cr  Cr1  1  0.50858120  0.98656241  0.49294012  1
  Cr  Cr2  1  0.25013188  0.49727461  0.74882802  1
  Cr  Cr3  1  0.99740649  0.00272539  0.00117198  1
  O  O4  1  0.74893292  0.75000000  0.37500000  1
  F  F5  1  0.81347997  0.75054215  0.68373567  1
  F  F6  1  0.81402212  0.74945785  0.06626433  1
  F  F7  1  0.75497180  0.25490092  0.12824472  1
  F  F8  1  0.68545441  0.24923061  0.81439706  1
  F  F9  1  0.68225099  0.25076857  0.43513122  1
  F  F10  1  0.31282297  0.74960023  0.56282776  1
  F  F11  1  0.31242320  0.75039977  0.18717224  1
  F  F12  1  0.24680615  0.75000000  0.87500000  1
  F  F13  1  0.25987272  0.24509908  0.62175528  1
  F  F14  1  0.18301856  0.24923143  0.31486878  1
  F  F15  1  0.18468402  0.25076939  0.93560294  1
