# generated using pymatgen
data_CsN3
_symmetry_space_group_name_H-M   'P 1'
_cell_length_a   6.25028742
_cell_length_b   6.25028775
_cell_length_c   6.25028749
_cell_angle_alpha   98.34782530
_cell_angle_beta   115.30323719
_cell_angle_gamma   115.30323372
_symmetry_Int_Tables_number   1
_chemical_formula_structural   CsN3
_chemical_formula_sum   'Cs2 N6'
_cell_volume   182.80849487
_cell_formula_units_Z   2
loop_
 _symmetry_equiv_pos_site_id
 _symmetry_equiv_pos_as_xyz
  1  'x, y, z'
loop_
 _atom_site_type_symbol
 _atom_site_label
 _atom_site_symmetry_multiplicity
 _atom_site_fract_x
 _atom_site_fract_y
 _atom_site_fract_z
 _atom_site_occupancy
  Cs  Cs0  1  0.00000000  0.25000000  0.25000000  1
  Cs  Cs1  1  0.00000000  0.75000000  0.75000000  1
  N  N2  1  0.50000000  0.00000000  0.50000000  1
  N  N3  1  0.50000000  0.87417811  0.62582189  1
  N  N4  1  0.75164378  0.62582189  0.12582189  1
  N  N5  1  0.24835622  0.37417811  0.87417811  1
  N  N6  1  0.50000000  0.12582189  0.37417811  1
  N  N7  1  0.50000000  0.50000000  0.00000000  1
