# generated using pymatgen
data_LiAlSiH2O5
_symmetry_space_group_name_H-M   'P 1'
_cell_length_a   10.48652139
_cell_length_b   8.29093943
_cell_length_c   5.04491152
_cell_angle_alpha   90.00000000
_cell_angle_beta   90.00000000
_cell_angle_gamma   90.00000000
_symmetry_Int_Tables_number   1
_chemical_formula_structural   LiAlSiH2O5
_chemical_formula_sum   'Li4 Al4 Si4 H8 O20'
_cell_volume   438.62031577
_cell_formula_units_Z   4
loop_
 _symmetry_equiv_pos_site_id
 _symmetry_equiv_pos_as_xyz
  1  'x, y, z'
loop_
 _atom_site_type_symbol
 _atom_site_label
 _atom_site_symmetry_multiplicity
 _atom_site_fract_x
 _atom_site_fract_y
 _atom_site_fract_z
 _atom_site_occupancy
  Li  Li0  1  0.81420998  0.31549817  0.76361029  1
  Li  Li1  1  0.18579002  0.68450183  0.26361029  1
  Li  Li2  1  0.68579002  0.81549817  0.26361029  1
  Li  Li3  1  0.31420998  0.18450183  0.76361029  1
  Al  Al4  1  0.65742385  0.41835637  0.25529471  1
  Al  Al5  1  0.34257615  0.58164363  0.75529471  1
  Al  Al6  1  0.84257615  0.91835637  0.75529471  1
  Al  Al7  1  0.15742385  0.08164363  0.25529471  1
  Si  Si8  1  0.85521702  0.12514742  0.25419879  1
  Si  Si9  1  0.14478298  0.87485258  0.75419879  1
  Si  Si10  1  0.64478298  0.62514742  0.75419879  1
  Si  Si11  1  0.35521702  0.37485258  0.25419879  1
  H  H12  1  0.04241286  0.32846888  0.83234806  1
  H  H13  1  0.95758714  0.67153112  0.33234806  1
  H  H14  1  0.45758714  0.82846888  0.33234806  1
  H  H15  1  0.54241286  0.17153112  0.83234806  1
  H  H16  1  0.01667330  0.44611139  0.58823169  1
  H  H17  1  0.98332670  0.55388861  0.08823169  1
  H  H18  1  0.48332670  0.94611139  0.08823169  1
  H  H19  1  0.51667330  0.05388861  0.58823169  1
  O  O20  1  0.50542792  0.33854231  0.19857535  1
  O  O21  1  0.49457208  0.66145769  0.69857535  1
  O  O22  1  0.99457208  0.83854231  0.69857535  1
  O  O23  1  0.00542792  0.16145769  0.19857535  1
  O  O24  1  0.77192449  0.27837274  0.14164976  1
  O  O25  1  0.22807551  0.72162726  0.64164976  1
  O  O26  1  0.72807551  0.77837274  0.64164976  1
  O  O27  1  0.27192449  0.22162726  0.14164976  1
  O  O28  1  0.68860258  0.46021618  0.59379541  1
  O  O29  1  0.31139742  0.53978382  0.09379541  1
  O  O30  1  0.81139742  0.96021618  0.09379541  1
  O  O31  1  0.18860258  0.03978382  0.59379541  1
  O  O32  1  0.67621067  0.60089571  0.07169085  1
  O  O33  1  0.32378933  0.39910429  0.57169085  1
  O  O34  1  0.82378933  0.10089571  0.57169085  1
  O  O35  1  0.17621067  0.89910429  0.07169085  1
  O  O36  1  0.98560097  0.41197800  0.76430509  1
  O  O37  1  0.01439903  0.58802200  0.26430509  1
  O  O38  1  0.51439903  0.91197800  0.26430509  1
  O  O39  1  0.48560097  0.08802200  0.76430509  1
