# generated using pymatgen
data_LiIO3
_symmetry_space_group_name_H-M   'P 1'
_cell_length_a   5.40770404
_cell_length_b   5.93041603
_cell_length_c   9.46521321
_cell_angle_alpha   90.00000000
_cell_angle_beta   90.00000000
_cell_angle_gamma   90.00000000
_symmetry_Int_Tables_number   1
_chemical_formula_structural   LiIO3
_chemical_formula_sum   'Li4 I4 O12'
_cell_volume   303.54876980
_cell_formula_units_Z   4
loop_
 _symmetry_equiv_pos_site_id
 _symmetry_equiv_pos_as_xyz
  1  'x, y, z'
loop_
 _atom_site_type_symbol
 _atom_site_label
 _atom_site_symmetry_multiplicity
 _atom_site_fract_x
 _atom_site_fract_y
 _atom_site_fract_z
 _atom_site_occupancy
  Li  Li0  1  0.97488597  0.41551567  0.52044812  1
  Li  Li1  1  0.97488597  0.08448433  0.02044812  1
  Li  Li2  1  0.47488597  0.58448433  0.47955188  1
  Li  Li3  1  0.47488597  0.91551567  0.97955188  1
  I  I4  1  0.52161035  0.42445912  0.81737956  1
  I  I5  1  0.02161035  0.57554088  0.18262044  1
  I  I6  1  0.52161035  0.07554088  0.31737956  1
  I  I7  1  0.02161035  0.92445912  0.68262044  1
  O  O8  1  0.67843537  0.47611896  0.64985840  1
  O  O9  1  0.16818372  0.14298067  0.57485451  1
  O  O10  1  0.17843537  0.97611896  0.85014160  1
  O  O11  1  0.66818372  0.85701933  0.42514549  1
  O  O12  1  0.66818372  0.64298067  0.92514549  1
  O  O13  1  0.17843537  0.52388104  0.35014160  1
  O  O14  1  0.19008458  0.67228661  0.62669454  1
  O  O15  1  0.69008458  0.17228661  0.87330546  1
  O  O16  1  0.69008458  0.32771339  0.37330546  1
  O  O17  1  0.19008458  0.82771339  0.12669454  1
  O  O18  1  0.67843537  0.02388104  0.14985840  1
  O  O19  1  0.16818372  0.35701933  0.07485451  1
