# generated using pymatgen
data_Li3CrO4
_symmetry_space_group_name_H-M   'P 1'
_cell_length_a   5.79667211
_cell_length_b   5.79667211
_cell_length_c   8.23255925
_cell_angle_alpha   90.00000000
_cell_angle_beta   90.00000000
_cell_angle_gamma   90.00000000
_symmetry_Int_Tables_number   1
_chemical_formula_structural   Li3CrO4
_chemical_formula_sum   'Li12 Cr4 O16'
_cell_volume   276.62557855
_cell_formula_units_Z   4
loop_
 _symmetry_equiv_pos_site_id
 _symmetry_equiv_pos_as_xyz
  1  'x, y, z'
loop_
 _atom_site_type_symbol
 _atom_site_label
 _atom_site_symmetry_multiplicity
 _atom_site_fract_x
 _atom_site_fract_y
 _atom_site_fract_z
 _atom_site_occupancy
  Li  Li0  1  0.00000000  0.24964451  0.00000000  1
  Li  Li1  1  0.00000000  0.75021829  0.00000000  1
  Li  Li2  1  0.00000000  0.24978171  0.50000000  1
  Li  Li3  1  0.00000000  0.75035549  0.50000000  1
  Li  Li4  1  0.25375903  0.50000000  0.25000000  1
  Li  Li5  1  0.24964451  0.00000000  0.75000000  1
  Li  Li6  1  0.24978171  0.00000000  0.25000000  1
  Li  Li7  1  0.50000000  0.25375903  0.50000000  1
  Li  Li8  1  0.50000000  0.74624097  0.00000000  1
  Li  Li9  1  0.75021829  0.00000000  0.75000000  1
  Li  Li10  1  0.75035549  0.00000000  0.25000000  1
  Li  Li11  1  0.74624097  0.50000000  0.75000000  1
  Cr  Cr12  1  0.22422808  0.50000000  0.75000000  1
  Cr  Cr13  1  0.50000000  0.22422808  0.00000000  1
  Cr  Cr14  1  0.50000000  0.77577192  0.50000000  1
  Cr  Cr15  1  0.77577192  0.50000000  0.25000000  1
  O  O16  1  0.02105213  0.27149026  0.74340481  1
  O  O17  1  0.02105213  0.72850974  0.75659519  1
  O  O18  1  0.26987719  0.49151360  0.97948555  1
  O  O19  1  0.26987719  0.50848640  0.52051445  1
  O  O20  1  0.27149026  0.02105213  0.00659519  1
  O  O21  1  0.27149026  0.97894787  0.49340481  1
  O  O22  1  0.49151360  0.26987719  0.77051445  1
  O  O23  1  0.49151360  0.73012281  0.72948555  1
  O  O24  1  0.50848640  0.26987719  0.22948555  1
  O  O25  1  0.50848640  0.73012281  0.27051445  1
  O  O26  1  0.72850974  0.97894787  0.50659519  1
  O  O27  1  0.72850974  0.02105213  0.99340481  1
  O  O28  1  0.73012281  0.49151360  0.02051445  1
  O  O29  1  0.73012281  0.50848640  0.47948555  1
  O  O30  1  0.97894787  0.27149026  0.25659519  1
  O  O31  1  0.97894787  0.72850974  0.24340481  1
