# generated using pymatgen
data_AgP2
_symmetry_space_group_name_H-M   'P 1'
_cell_length_a   5.11813659
_cell_length_b   6.25918593
_cell_length_c   7.88817796
_cell_angle_alpha   113.30953737
_cell_angle_beta   90.00000000
_cell_angle_gamma   90.00000000
_symmetry_Int_Tables_number   1
_chemical_formula_structural   AgP2
_chemical_formula_sum   'Ag4 P8'
_cell_volume   232.07539102
_cell_formula_units_Z   4
loop_
 _symmetry_equiv_pos_site_id
 _symmetry_equiv_pos_as_xyz
  1  'x, y, z'
loop_
 _atom_site_type_symbol
 _atom_site_label
 _atom_site_symmetry_multiplicity
 _atom_site_fract_x
 _atom_site_fract_y
 _atom_site_fract_z
 _atom_site_occupancy
  P  P0  1  0.40643188  0.67304350  0.08399765  1
  P  P1  1  0.90643188  0.82695650  0.41600235  1
  P  P2  1  0.59356812  0.32695650  0.91600235  1
  P  P3  1  0.09356812  0.17304350  0.58399765  1
  P  P4  1  0.76813874  0.42284892  0.69957726  1
  P  P5  1  0.26813874  0.07715108  0.80042274  1
  P  P6  1  0.23186126  0.57715108  0.30042274  1
  P  P7  1  0.73186126  0.92284892  0.19957726  1
  Ag  Ag8  1  0.04684179  0.75788825  0.90203466  1
  Ag  Ag9  1  0.54684179  0.74211175  0.59796534  1
  Ag  Ag10  1  0.95315821  0.24211175  0.09796534  1
  Ag  Ag11  1  0.45315821  0.25788825  0.40203466  1
