# generated using pymatgen
data_CaB4O7
_symmetry_space_group_name_H-M   'P 1'
_cell_length_a   4.23541652
_cell_length_b   4.41472567
_cell_length_c   10.72126257
_cell_angle_alpha   90.00000000
_cell_angle_beta   90.00000000
_cell_angle_gamma   90.00000000
_symmetry_Int_Tables_number   1
_chemical_formula_structural   CaB4O7
_chemical_formula_sum   'Ca2 B8 O14'
_cell_volume   200.46833359
_cell_formula_units_Z   2
loop_
 _symmetry_equiv_pos_site_id
 _symmetry_equiv_pos_as_xyz
  1  'x, y, z'
loop_
 _atom_site_type_symbol
 _atom_site_label
 _atom_site_symmetry_multiplicity
 _atom_site_fract_x
 _atom_site_fract_y
 _atom_site_fract_z
 _atom_site_occupancy
  B  B0  1  0.61580821  0.17753847  0.25079471  1
  B  B1  1  0.11580821  0.82246153  0.24920529  1
  B  B2  1  0.59130883  0.67296343  0.12069536  1
  B  B3  1  0.09130883  0.32703657  0.37930464  1
  B  B4  1  0.09130883  0.32703657  0.62069536  1
  B  B5  1  0.59130883  0.67296343  0.87930464  1
  B  B6  1  0.11580821  0.82246153  0.75079471  1
  B  B7  1  0.61580821  0.17753847  0.74920529  1
  O  O8  1  0.16717752  0.64662619  0.63889323  1
  O  O9  1  0.66717752  0.35337381  0.13889323  1
  O  O10  1  0.16717752  0.64662619  0.36110677  1
  O  O11  1  0.75304885  0.27344682  0.63398990  1
  O  O12  1  0.75304885  0.27344682  0.36601010  1
  O  O13  1  0.25304885  0.72655318  0.13398990  1
  O  O14  1  0.70118229  0.77833931  0.00000000  1
  O  O15  1  0.20118229  0.22166069  0.50000000  1
  O  O16  1  0.75765045  0.86472361  0.22342809  1
  O  O17  1  0.25765045  0.13527639  0.27657191  1
  O  O18  1  0.25765045  0.13527639  0.72342809  1
  O  O19  1  0.75765045  0.86472361  0.77657191  1
  O  O20  1  0.25304885  0.72655318  0.86601010  1
  O  O21  1  0.66717752  0.35337381  0.86110677  1
  Ca  Ca22  1  0.58663001  0.81039463  0.50000000  1
  Ca  Ca23  1  0.08663001  0.18960537  0.00000000  1
