# generated using pymatgen
data_NaP3(PbO3)4
_symmetry_space_group_name_H-M   'P 1'
_cell_length_a   9.87025086
_cell_length_b   9.87025207
_cell_length_c   7.32504689
_cell_angle_alpha   90.00000000
_cell_angle_beta   90.00000000
_cell_angle_gamma   119.99999934
_symmetry_Int_Tables_number   1
_chemical_formula_structural   NaP3(PbO3)4
_chemical_formula_sum   'Na2 P6 Pb8 O24'
_cell_volume   618.01281209
_cell_formula_units_Z   2
loop_
 _symmetry_equiv_pos_site_id
 _symmetry_equiv_pos_as_xyz
  1  'x, y, z'
loop_
 _atom_site_type_symbol
 _atom_site_label
 _atom_site_symmetry_multiplicity
 _atom_site_fract_x
 _atom_site_fract_y
 _atom_site_fract_z
 _atom_site_occupancy
  Na  Na0  1  0.33333300  0.66666700  0.50643285  1
  Na  Na1  1  0.66666700  0.33333300  0.00643285  1
  P  P2  1  0.02073539  0.39574866  0.25136271  1
  P  P3  1  0.37501327  0.97926461  0.25136271  1
  P  P4  1  0.39574866  0.37501327  0.75136271  1
  P  P5  1  0.60425134  0.62498673  0.25136271  1
  P  P6  1  0.62498673  0.02073539  0.75136271  1
  P  P7  1  0.97926461  0.60425134  0.75136271  1
  Pb  Pb8  1  0.25852234  0.00136825  0.74962997  1
  Pb  Pb9  1  0.99863175  0.25715308  0.74962997  1
  Pb  Pb10  1  0.33333300  0.66666700  0.98858325  1
  Pb  Pb11  1  0.25715308  0.25852234  0.24962997  1
  Pb  Pb12  1  0.74284692  0.74147766  0.74962997  1
  Pb  Pb13  1  0.66666700  0.33333300  0.48858325  1
  Pb  Pb14  1  0.00136825  0.74284692  0.24962997  1
  Pb  Pb15  1  0.74147766  0.99863175  0.24962997  1
  O  O16  1  0.26630834  0.91774335  0.07930583  1
  O  O17  1  0.26295249  0.92377117  0.41912794  1
  O  O18  1  0.10422626  0.57948745  0.25626259  1
  O  O19  1  0.15915812  0.67747551  0.74597227  1
  O  O20  1  0.08225665  0.34856499  0.07930583  1
  O  O21  1  0.07622883  0.33918132  0.41912794  1
  O  O22  1  0.47526120  0.89577374  0.25626259  1
  O  O23  1  0.32252449  0.48168261  0.74597227  1
  O  O24  1  0.51831739  0.84084188  0.74597227  1
  O  O25  1  0.42051255  0.52473880  0.25626259  1
  O  O26  1  0.34856499  0.26630834  0.57930583  1
  O  O27  1  0.33918132  0.26295249  0.91912794  1
  O  O28  1  0.65143501  0.73369166  0.07930583  1
  O  O29  1  0.66081868  0.73704751  0.41912794  1
  O  O30  1  0.57948745  0.47526120  0.75626259  1
  O  O31  1  0.48168261  0.15915812  0.24597227  1
  O  O32  1  0.67747551  0.51831739  0.24597227  1
  O  O33  1  0.52473880  0.10422626  0.75626259  1
  O  O34  1  0.91774335  0.65143501  0.57930583  1
  O  O35  1  0.92377117  0.66081868  0.91912794  1
  O  O36  1  0.84084188  0.32252449  0.24597227  1
  O  O37  1  0.89577374  0.42051255  0.75626259  1
  O  O38  1  0.73369166  0.08225665  0.57930583  1
  O  O39  1  0.73704751  0.07622883  0.91912794  1
