# generated using pymatgen
data_K2O2
_symmetry_space_group_name_H-M   'P 1'
_cell_length_a   4.91158831
_cell_length_b   4.91158831
_cell_length_c   6.56505995
_cell_angle_alpha   90.00000000
_cell_angle_beta   90.00000000
_cell_angle_gamma   91.95440367
_symmetry_Int_Tables_number   1
_chemical_formula_structural   K2O2
_chemical_formula_sum   'K4 O4'
_cell_volume   158.28140646
_cell_formula_units_Z   2
loop_
 _symmetry_equiv_pos_site_id
 _symmetry_equiv_pos_as_xyz
  1  'x, y, z'
loop_
 _atom_site_type_symbol
 _atom_site_label
 _atom_site_symmetry_multiplicity
 _atom_site_fract_x
 _atom_site_fract_y
 _atom_site_fract_z
 _atom_site_occupancy
  O  O0  1  0.58688013  0.41311987  0.43090098  1
  O  O1  1  0.91311987  0.08688013  0.93090098  1
  O  O2  1  0.41311987  0.58688013  0.56909902  1
  O  O3  1  0.08688013  0.91311987  0.06909902  1
  K  K4  1  0.90899594  0.59100406  0.75000000  1
  K  K5  1  0.59100406  0.90899594  0.25000000  1
  K  K6  1  0.09100406  0.40899594  0.25000000  1
  K  K7  1  0.40899594  0.09100406  0.75000000  1
