# generated using pymatgen
data_Ca2B5H2ClO10
_symmetry_space_group_name_H-M   'P 1'
_cell_length_a   6.32379168
_cell_length_b   6.54845572
_cell_length_c   6.64598002
_cell_angle_alpha   73.86830043
_cell_angle_beta   61.91677259
_cell_angle_gamma   61.51572595
_symmetry_Int_Tables_number   1
_chemical_formula_structural   Ca2B5H2ClO10
_chemical_formula_sum   'Ca2 B5 H2 Cl1 O10'
_cell_volume   212.91582327
_cell_formula_units_Z   1
loop_
 _symmetry_equiv_pos_site_id
 _symmetry_equiv_pos_as_xyz
  1  'x, y, z'
loop_
 _atom_site_type_symbol
 _atom_site_label
 _atom_site_symmetry_multiplicity
 _atom_site_fract_x
 _atom_site_fract_y
 _atom_site_fract_z
 _atom_site_occupancy
  H  H0  1  0.57953209  0.97052082  0.46299122  1
  H  H1  1  0.82311320  0.92898432  0.50948268  1
  B  B2  1  0.52755713  0.47540800  0.13073911  1
  B  B3  1  0.39836971  0.32902634  0.91099600  1
  B  B4  1  0.93145868  0.54985039  0.97248509  1
  B  B5  1  0.51855107  0.88068775  0.99540185  1
  B  B6  1  0.28775127  0.44921537  0.57969864  1
  O  O7  1  0.77260417  0.88690825  0.41286650  1
  O  O8  1  0.32619056  0.45004956  0.35930858  1
  O  O9  1  0.41329965  0.72293798  0.04012664  1
  O  O10  1  0.77561942  0.42087254  0.14418939  1
  O  O11  1  0.59254768  0.30910509  0.97909090  1
  O  O12  1  0.36592074  0.10573381  0.94876611  1
  O  O13  1  0.48093042  0.39524707  0.65344438  1
  O  O14  1  0.13999650  0.50579059  0.03433367  1
  O  O15  1  0.76614188  0.80740826  0.98527180  1
  O  O16  1  0.03042966  0.48742293  0.73496554  1
  Cl  Cl17  1  0.18424527  0.98847628  0.53090376  1
  Ca  Ca18  1  0.89840583  0.45188858  0.44263260  1
  Ca  Ca19  1  0.99613509  0.00526606  0.99940553  1
