# generated using pymatgen
data_NaAlSiO4
_symmetry_space_group_name_H-M   'P 1'
_cell_length_a   7.41671476
_cell_length_b   7.41671476
_cell_length_c   7.41671476
_cell_angle_alpha   90.00000000
_cell_angle_beta   90.00000000
_cell_angle_gamma   90.00000000
_symmetry_Int_Tables_number   1
_chemical_formula_structural   NaAlSiO4
_chemical_formula_sum   'Na4 Al4 Si4 O16'
_cell_volume   407.97610775
_cell_formula_units_Z   4
loop_
 _symmetry_equiv_pos_site_id
 _symmetry_equiv_pos_as_xyz
  1  'x, y, z'
loop_
 _atom_site_type_symbol
 _atom_site_label
 _atom_site_symmetry_multiplicity
 _atom_site_fract_x
 _atom_site_fract_y
 _atom_site_fract_z
 _atom_site_occupancy
  O  O0  1  0.87079593  0.33546412  0.52950708  1
  O  O1  1  0.37079593  0.16453588  0.47049292  1
  O  O2  1  0.12920407  0.83546412  0.97049292  1
  O  O3  1  0.16453588  0.47049292  0.37079593  1
  O  O4  1  0.97049292  0.12920407  0.83546412  1
  O  O5  1  0.47049292  0.37079593  0.16453588  1
  O  O6  1  0.33546412  0.52950708  0.87079593  1
  O  O7  1  0.52950708  0.87079593  0.33546412  1
  O  O8  1  0.83546412  0.97049292  0.12920407  1
  O  O9  1  0.66453588  0.02950708  0.62920407  1
  O  O10  1  0.02950708  0.62920407  0.66453588  1
  O  O11  1  0.62920407  0.66453588  0.02950708  1
  O  O12  1  0.14793087  0.14793087  0.14793087  1
  O  O13  1  0.35206913  0.85206913  0.64793087  1
  O  O14  1  0.64793087  0.35206913  0.85206913  1
  O  O15  1  0.85206913  0.64793087  0.35206913  1
  Na  Na16  1  0.22948261  0.27051739  0.72948261  1
  Na  Na17  1  0.27051739  0.72948261  0.22948261  1
  Na  Na18  1  0.72948261  0.22948261  0.27051739  1
  Na  Na19  1  0.77051739  0.77051739  0.77051739  1
  Al  Al20  1  0.71682202  0.78317798  0.21682202  1
  Al  Al21  1  0.78317798  0.21682202  0.71682202  1
  Al  Al22  1  0.21682202  0.71682202  0.78317798  1
  Al  Al23  1  0.28317798  0.28317798  0.28317798  1
  Si  Si24  1  0.97788226  0.52211774  0.47788226  1
  Si  Si25  1  0.52211774  0.47788226  0.97788226  1
  Si  Si26  1  0.47788226  0.97788226  0.52211774  1
  Si  Si27  1  0.02211774  0.02211774  0.02211774  1
