# generated using pymatgen
data_SiO2
_symmetry_space_group_name_H-M   'P 1'
_cell_length_a   4.99271989
_cell_length_b   4.86432821
_cell_length_c   8.01779401
_cell_angle_alpha   89.99997731
_cell_angle_beta   90.00002574
_cell_angle_gamma   117.00846913
_symmetry_Int_Tables_number   1
_chemical_formula_structural   SiO2
_chemical_formula_sum   'Si4 O8'
_cell_volume   173.48548095
_cell_formula_units_Z   4
loop_
 _symmetry_equiv_pos_site_id
 _symmetry_equiv_pos_as_xyz
  1  'x, y, z'
loop_
 _atom_site_type_symbol
 _atom_site_label
 _atom_site_symmetry_multiplicity
 _atom_site_fract_x
 _atom_site_fract_y
 _atom_site_fract_z
 _atom_site_occupancy
  Si  Si0  1  0.36400723  0.56008426  0.06243498  1
  Si  Si1  1  0.28913074  0.76487663  0.43615678  1
  Si  Si2  1  0.63599258  0.43991546  0.56243472  1
  Si  Si3  1  0.71086895  0.23512372  0.93615607  1
  O  O4  1  0.60188220  0.41525470  0.07154404  1
  O  O5  1  0.30248746  0.64732762  0.24935684  1
  O  O6  1  0.50235330  0.13481857  0.44400021  1
  O  O7  1  0.94624872  0.70053813  0.48140714  1
  O  O8  1  0.39811910  0.58474684  0.57154396  1
  O  O9  1  0.69751265  0.35267040  0.74935699  1
  O  O10  1  0.49764646  0.86518066  0.94400058  1
  O  O11  1  0.05375161  0.29946100  0.98140667  1
