# generated using pymatgen
data_BaYFeCuO5
_symmetry_space_group_name_H-M   'P 1'
_cell_length_a   3.89946507
_cell_length_b   3.89946507
_cell_length_c   7.94520274
_cell_angle_alpha   90.00000000
_cell_angle_beta   90.00000000
_cell_angle_gamma   90.00000000
_symmetry_Int_Tables_number   1
_chemical_formula_structural   BaYFeCuO5
_chemical_formula_sum   'Ba1 Y1 Fe1 Cu1 O5'
_cell_volume   120.81338496
_cell_formula_units_Z   1
loop_
 _symmetry_equiv_pos_site_id
 _symmetry_equiv_pos_as_xyz
  1  'x, y, z'
loop_
 _atom_site_type_symbol
 _atom_site_label
 _atom_site_symmetry_multiplicity
 _atom_site_fract_x
 _atom_site_fract_y
 _atom_site_fract_z
 _atom_site_occupancy
  O  O0  1  0.00000000  0.49999900  0.63616638  1
  O  O1  1  0.49999900  0.00000000  0.63616638  1
  O  O2  1  0.00000000  0.49999900  0.27651405  1
  O  O3  1  0.49999900  0.00000000  0.27651405  1
  O  O4  1  0.49999900  0.49999900  0.94030005  1
  Fe  Fe5  1  0.49999900  0.49999900  0.70534482  1
  Cu  Cu6  1  0.49999900  0.49999900  0.25515305  1
  Y  Y7  1  0.00000000  0.00000000  0.46400006  1
  Ba  Ba8  1  0.00000000  0.00000000  0.99775917  1
