# generated using pymatgen
data_LiNbWO6
_symmetry_space_group_name_H-M   'P 1'
_cell_length_a   4.77535437
_cell_length_b   4.77535437
_cell_length_c   9.43008804
_cell_angle_alpha   90.00000000
_cell_angle_beta   90.00000000
_cell_angle_gamma   90.00000000
_symmetry_Int_Tables_number   1
_chemical_formula_structural   LiNbWO6
_chemical_formula_sum   'Li2 Nb2 W2 O12'
_cell_volume   215.04381592
_cell_formula_units_Z   2
loop_
 _symmetry_equiv_pos_site_id
 _symmetry_equiv_pos_as_xyz
  1  'x, y, z'
loop_
 _atom_site_type_symbol
 _atom_site_label
 _atom_site_symmetry_multiplicity
 _atom_site_fract_x
 _atom_site_fract_y
 _atom_site_fract_z
 _atom_site_occupancy
  Li  Li0  1  0.00000000  0.50000000  0.42530122  1
  Li  Li1  1  0.50000000  0.00000000  0.57469878  1
  O  O2  1  0.28757935  0.78757935  0.77286945  1
  O  O3  1  0.70000421  0.20000421  0.39106621  1
  O  O4  1  0.20000421  0.29999579  0.60893379  1
  O  O5  1  0.79999579  0.70000421  0.60893379  1
  O  O6  1  0.71242065  0.21242065  0.77286945  1
  O  O7  1  0.78757935  0.71242065  0.22713055  1
  O  O8  1  0.21242065  0.28757935  0.22713055  1
  O  O9  1  0.30513982  0.80513982  0.08046168  1
  O  O10  1  0.69486018  0.19486018  0.08046168  1
  O  O11  1  0.80513982  0.69486018  0.91953832  1
  O  O12  1  0.19486018  0.30513982  0.91953832  1
  O  O13  1  0.29999579  0.79999579  0.39106621  1
  Nb  Nb14  1  0.00000000  0.50000000  0.09193937  1
  Nb  Nb15  1  0.50000000  0.00000000  0.90806063  1
  W  W16  1  0.50000000  0.00000000  0.26640129  1
  W  W17  1  0.00000000  0.50000000  0.73359871  1
