# generated using pymatgen
data_MnP2O7
_symmetry_space_group_name_H-M   'P 1'
_cell_length_a   5.09471208
_cell_length_b   5.09471209
_cell_length_c   4.47005834
_cell_angle_alpha   81.66747001
_cell_angle_beta   98.33253003
_cell_angle_gamma   79.55441182
_symmetry_Int_Tables_number   1
_chemical_formula_structural   MnP2O7
_chemical_formula_sum   'Mn1 P2 O7'
_cell_volume   111.13692932
_cell_formula_units_Z   1
loop_
 _symmetry_equiv_pos_site_id
 _symmetry_equiv_pos_as_xyz
  1  'x, y, z'
loop_
 _atom_site_type_symbol
 _atom_site_label
 _atom_site_symmetry_multiplicity
 _atom_site_fract_x
 _atom_site_fract_y
 _atom_site_fract_z
 _atom_site_occupancy
  O  O0  1  0.54800046  0.54800234  0.49999890  1
  O  O1  1  0.14201851  0.43761972  0.73154861  1
  O  O2  1  0.07105059  0.81038019  0.28567422  1
  O  O3  1  0.33815926  0.85794972  0.81193729  1
  O  O4  1  0.81038070  0.07105144  0.71432639  1
  O  O5  1  0.85795064  0.33815837  0.18806367  1
  O  O6  1  0.43761996  0.14201789  0.26845219  1
  P  P7  1  0.26199216  0.66781166  0.59121792  1
  P  P8  1  0.66781353  0.26199146  0.40878092  1
  Mn  Mn9  1  0.11219419  0.11219572  0.00000040  1
