# generated using pymatgen
data_Na2BeF4
_symmetry_space_group_name_H-M   'P 1'
_cell_length_a   4.95492434
_cell_length_b   6.64661609
_cell_length_c   11.09084937
_cell_angle_alpha   90.00000000
_cell_angle_beta   90.00000000
_cell_angle_gamma   90.00000000
_symmetry_Int_Tables_number   1
_chemical_formula_structural   Na2BeF4
_chemical_formula_sum   'Na8 Be4 F16'
_cell_volume   365.26026417
_cell_formula_units_Z   4
loop_
 _symmetry_equiv_pos_site_id
 _symmetry_equiv_pos_as_xyz
  1  'x, y, z'
loop_
 _atom_site_type_symbol
 _atom_site_label
 _atom_site_symmetry_multiplicity
 _atom_site_fract_x
 _atom_site_fract_y
 _atom_site_fract_z
 _atom_site_occupancy
  Be  Be0  1  0.42565734  0.25000000  0.90396936  1
  Be  Be1  1  0.57434266  0.75000000  0.09603064  1
  Be  Be2  1  0.07434266  0.25000000  0.40396936  1
  Be  Be3  1  0.92565734  0.75000000  0.59603064  1
  F  F4  1  0.69619762  0.94066016  0.16054739  1
  F  F5  1  0.19619762  0.05933984  0.33945261  1
  F  F6  1  0.30380238  0.44066016  0.83945261  1
  F  F7  1  0.80380238  0.55933984  0.66054739  1
  F  F8  1  0.19619762  0.44066016  0.33945261  1
  F  F9  1  0.30380238  0.05933984  0.83945261  1
  F  F10  1  0.69619762  0.55933984  0.16054739  1
  F  F11  1  0.80380238  0.94066016  0.66054739  1
  F  F12  1  0.73974676  0.25000000  0.90619296  1
  F  F13  1  0.23974676  0.75000000  0.59380704  1
  F  F14  1  0.26025324  0.75000000  0.09380704  1
  F  F15  1  0.76025324  0.25000000  0.40619296  1
  F  F16  1  0.69608939  0.75000000  0.96350682  1
  F  F17  1  0.19608939  0.25000000  0.53649318  1
  F  F18  1  0.30391061  0.25000000  0.03649318  1
  F  F19  1  0.80391061  0.75000000  0.46350682  1
  Na  Na20  1  0.51165392  0.25000000  0.22030018  1
  Na  Na21  1  0.01165392  0.75000000  0.27969982  1
  Na  Na22  1  0.48834608  0.75000000  0.77969982  1
  Na  Na23  1  0.98834608  0.25000000  0.72030018  1
  Na  Na24  1  0.50000000  0.50000000  0.50000000  1
  Na  Na25  1  0.00000000  0.50000000  0.00000000  1
  Na  Na26  1  0.50000000  0.00000000  0.50000000  1
  Na  Na27  1  0.00000000  0.00000000  0.00000000  1
