# generated using pymatgen
data_AgI2
_symmetry_space_group_name_H-M   'P 1'
_cell_length_a   8.78174775
_cell_length_b   6.35478126
_cell_length_c   4.28554879
_cell_angle_alpha   90.00418768
_cell_angle_beta   60.78952079
_cell_angle_gamma   43.64757994
_symmetry_Int_Tables_number   1
_chemical_formula_structural   AgI2
_chemical_formula_sum   'Ag1 I2'
_cell_volume   116.72123559
_cell_formula_units_Z   1
loop_
 _symmetry_equiv_pos_site_id
 _symmetry_equiv_pos_as_xyz
  1  'x, y, z'
loop_
 _atom_site_type_symbol
 _atom_site_label
 _atom_site_symmetry_multiplicity
 _atom_site_fract_x
 _atom_site_fract_y
 _atom_site_fract_z
 _atom_site_occupancy
  Ag  Ag0  1  0.49999933  0.24999982  0.49999925  1
  I  I1  1  1.00001048  0.02775037  1.00001606  1
  I  I2  1  0.49999019  0.97224981  -0.00001530  1
