# generated using pymatgen
data_Fe4O5F3
_symmetry_space_group_name_H-M   'P 1'
_cell_length_a   4.75714019
_cell_length_b   4.75714019
_cell_length_c   6.04836727
_cell_angle_alpha   90.00000000
_cell_angle_beta   90.00000000
_cell_angle_gamma   95.23139445
_symmetry_Int_Tables_number   1
_chemical_formula_structural   Fe4O5F3
_chemical_formula_sum   'Fe4 O5 F3'
_cell_volume   136.30671827
_cell_formula_units_Z   1
loop_
 _symmetry_equiv_pos_site_id
 _symmetry_equiv_pos_as_xyz
  1  'x, y, z'
loop_
 _atom_site_type_symbol
 _atom_site_label
 _atom_site_symmetry_multiplicity
 _atom_site_fract_x
 _atom_site_fract_y
 _atom_site_fract_z
 _atom_site_occupancy
  Fe  Fe0  1  0.00950906  0.99049094  0.00710557  1
  Fe  Fe1  1  0.00950906  0.99049094  0.49289443  1
  Fe  Fe2  1  0.47068270  0.52931730  0.25000000  1
  Fe  Fe3  1  0.50612894  0.49387106  0.75000000  1
  O  O4  1  0.18802626  0.81197374  0.25000000  1
  O  O5  1  0.30631092  0.30578463  0.98835199  1
  O  O6  1  0.30631092  0.30578463  0.51164801  1
  O  O7  1  0.69421537  0.69368908  0.98835199  1
  O  O8  1  0.69421537  0.69368908  0.51164801  1
  F  F9  1  0.19511765  0.80488235  0.75000000  1
  F  F10  1  0.80648814  0.19351186  0.25000000  1
  F  F11  1  0.81348362  0.18651638  0.75000000  1
