# generated using pymatgen
data_Mg3BeAl8O16
_symmetry_space_group_name_H-M   'P 1'
_cell_length_a   5.74035923
_cell_length_b   5.74035923
_cell_length_c   18.50777378
_cell_angle_alpha   90.00000000
_cell_angle_beta   90.00000000
_cell_angle_gamma   120.00000004
_symmetry_Int_Tables_number   1
_chemical_formula_structural   Mg3BeAl8O16
_chemical_formula_sum   'Mg6 Be2 Al16 O32'
_cell_volume   528.15689855
_cell_formula_units_Z   2
loop_
 _symmetry_equiv_pos_site_id
 _symmetry_equiv_pos_as_xyz
  1  'x, y, z'
loop_
 _atom_site_type_symbol
 _atom_site_label
 _atom_site_symmetry_multiplicity
 _atom_site_fract_x
 _atom_site_fract_y
 _atom_site_fract_z
 _atom_site_occupancy
  Be  Be0  1  0.66666667  0.33333333  0.00371701  1
  Be  Be1  1  0.33333333  0.66666667  0.50371701  1
  O  O2  1  0.62849082  0.81424541  0.16541425  1
  O  O3  1  0.37150918  0.18575459  0.66541425  1
  O  O4  1  0.81424541  0.18575459  0.66541425  1
  O  O5  1  0.18575459  0.37150918  0.16541425  1
  O  O6  1  0.81424541  0.62849082  0.66541425  1
  O  O7  1  0.18575459  0.81424541  0.16541425  1
  O  O8  1  0.33333333  0.66666667  0.66145319  1
  O  O9  1  0.66666667  0.33333333  0.16145319  1
  O  O10  1  0.62898504  0.81449252  0.54740793  1
  O  O11  1  0.81449252  0.62898504  0.04740793  1
  O  O12  1  0.81449252  0.18550748  0.04740793  1
  O  O13  1  0.18550748  0.81449252  0.54740793  1
  O  O14  1  0.18550748  0.37101496  0.54740793  1
  O  O15  1  0.37101496  0.18550748  0.04740793  1
  O  O16  1  0.66666667  0.33333333  0.54793808  1
  O  O17  1  0.33333333  0.66666667  0.04793808  1
  O  O18  1  0.83806966  0.67613932  0.41724288  1
  O  O19  1  0.16193034  0.83806966  0.91724288  1
  O  O20  1  0.67613932  0.83806966  0.91724288  1
  O  O21  1  0.32386068  0.16193034  0.41724288  1
  O  O22  1  0.83806966  0.16193034  0.41724288  1
  O  O23  1  0.16193034  0.32386068  0.91724288  1
  O  O24  1  0.00000000  0.00000000  0.80875707  1
  O  O25  1  0.00000000  0.00000000  0.30875707  1
  O  O26  1  0.51951593  0.03903187  0.80017474  1
  O  O27  1  0.48048407  0.51951593  0.30017474  1
  O  O28  1  0.03903187  0.51951593  0.30017474  1
  O  O29  1  0.96096813  0.48048407  0.80017474  1
  O  O30  1  0.51951593  0.48048407  0.80017474  1
  O  O31  1  0.48048407  0.96096813  0.30017474  1
  O  O32  1  0.66666667  0.33333333  0.91655615  1
  O  O33  1  0.33333333  0.66666667  0.41655615  1
  Mg  Mg34  1  0.00000000  0.00000000  0.00008712  1
  Mg  Mg35  1  0.00000000  0.00000000  0.50008712  1
  Mg  Mg36  1  0.00000000  0.00000000  0.20059995  1
  Mg  Mg37  1  0.00000000  0.00000000  0.70059995  1
  Mg  Mg38  1  0.66666667  0.33333333  0.26657073  1
  Mg  Mg39  1  0.33333333  0.66666667  0.76657073  1
  Al  Al40  1  0.49829504  0.99659008  0.60638189  1
  Al  Al41  1  0.99659008  0.49829504  0.10638189  1
  Al  Al42  1  0.66588544  0.83294272  0.36077201  1
  Al  Al43  1  0.83294272  0.66588544  0.86077201  1
  Al  Al44  1  0.83294272  0.16705728  0.86077201  1
  Al  Al45  1  0.16705728  0.83294272  0.36077201  1
  Al  Al46  1  0.16705728  0.33411456  0.36077201  1
  Al  Al47  1  0.33411456  0.16705728  0.86077201  1
  Al  Al48  1  0.66666667  0.33333333  0.45024225  1
  Al  Al49  1  0.33333333  0.66666667  0.95024225  1
  Al  Al50  1  0.49829504  0.50170496  0.60638189  1
  Al  Al51  1  0.50170496  0.49829504  0.10638189  1
  Al  Al52  1  0.50170496  0.00340992  0.10638189  1
  Al  Al53  1  0.00340992  0.50170496  0.60638189  1
  Al  Al54  1  0.33333333  0.66666667  0.23279735  1
  Al  Al55  1  0.66666667  0.33333333  0.73279735  1
