# generated using pymatgen
data_LiHS
_symmetry_space_group_name_H-M   'P 1'
_cell_length_a   3.95729972
_cell_length_b   7.91596551
_cell_length_c   12.33103688
_cell_angle_alpha   90.00000000
_cell_angle_beta   90.00000000
_cell_angle_gamma   90.00000000
_symmetry_Int_Tables_number   1
_chemical_formula_structural   LiHS
_chemical_formula_sum   'Li8 H8 S8'
_cell_volume   386.28018817
_cell_formula_units_Z   8
loop_
 _symmetry_equiv_pos_site_id
 _symmetry_equiv_pos_as_xyz
  1  'x, y, z'
loop_
 _atom_site_type_symbol
 _atom_site_label
 _atom_site_symmetry_multiplicity
 _atom_site_fract_x
 _atom_site_fract_y
 _atom_site_fract_z
 _atom_site_occupancy
  H  H0  1  0.14513330  0.50000000  0.25000000  1
  H  H1  1  0.14513330  0.00000000  0.75000000  1
  H  H2  1  0.85486670  0.00000000  0.25000000  1
  H  H3  1  0.85486670  0.50000000  0.75000000  1
  H  H4  1  0.00000000  0.07379862  0.00000000  1
  H  H5  1  0.00000000  0.42620138  0.50000000  1
  H  H6  1  0.00000000  0.57379862  0.00000000  1
  H  H7  1  0.00000000  0.92620138  0.50000000  1
  Li  Li8  1  0.50032706  0.25311638  0.12496683  1
  Li  Li9  1  0.49967294  0.24688362  0.37503317  1
  Li  Li10  1  0.50032706  0.24688362  0.62496683  1
  Li  Li11  1  0.49967294  0.75311638  0.12496683  1
  Li  Li12  1  0.49967294  0.74688362  0.62496683  1
  Li  Li13  1  0.49967294  0.25311638  0.87503317  1
  Li  Li14  1  0.50032706  0.74688362  0.37503317  1
  Li  Li15  1  0.50032706  0.75311638  0.87503317  1
  S  S16  1  0.48663657  0.50000000  0.25000000  1
  S  S17  1  0.51336343  0.50000000  0.75000000  1
  S  S18  1  0.51336343  0.00000000  0.25000000  1
  S  S19  1  0.48663657  0.00000000  0.75000000  1
  S  S20  1  0.00000000  0.24441099  0.00000000  1
  S  S21  1  0.00000000  0.25558901  0.50000000  1
  S  S22  1  0.00000000  0.74441099  0.00000000  1
  S  S23  1  0.00000000  0.75558901  0.50000000  1
