# generated using pymatgen
data_W(BrO)2
_symmetry_space_group_name_H-M   'P 1'
_cell_length_a   7.70784688
_cell_length_b   3.86961927
_cell_length_c   8.82386212
_cell_angle_alpha   90.00000000
_cell_angle_beta   90.00000000
_cell_angle_gamma   90.00000000
_symmetry_Int_Tables_number   1
_chemical_formula_structural   W(BrO)2
_chemical_formula_sum   'W2 Br4 O4'
_cell_volume   263.18433071
_cell_formula_units_Z   2
loop_
 _symmetry_equiv_pos_site_id
 _symmetry_equiv_pos_as_xyz
  1  'x, y, z'
loop_
 _atom_site_type_symbol
 _atom_site_label
 _atom_site_symmetry_multiplicity
 _atom_site_fract_x
 _atom_site_fract_y
 _atom_site_fract_z
 _atom_site_occupancy
  W  W0  1  0.02709949  0.97497958  0.00000000  1
  W  W1  1  0.52709949  0.02502042  0.00000000  1
  Br  Br2  1  0.04080469  0.00422955  0.28259586  1
  Br  Br3  1  0.04080469  0.00422955  0.71740414  1
  Br  Br4  1  0.54080469  0.99577045  0.28259586  1
  Br  Br5  1  0.54080469  0.99577045  0.71740414  1
  O  O6  1  0.03136565  0.49266383  0.00000000  1
  O  O7  1  0.28280547  0.00186574  0.00000000  1
  O  O8  1  0.53136565  0.50733617  0.00000000  1
  O  O9  1  0.78280547  0.99813426  0.00000000  1
