# generated using pymatgen
data_SiC
_symmetry_space_group_name_H-M   'P 1'
_cell_length_a   3.09488410
_cell_length_b   3.09488410
_cell_length_c   15.18453125
_cell_angle_alpha   90.00000000
_cell_angle_beta   90.00000000
_cell_angle_gamma   120.00000002
_symmetry_Int_Tables_number   1
_chemical_formula_structural   SiC
_chemical_formula_sum   'Si6 C6'
_cell_volume   125.95656276
_cell_formula_units_Z   6
loop_
 _symmetry_equiv_pos_site_id
 _symmetry_equiv_pos_as_xyz
  1  'x, y, z'
loop_
 _atom_site_type_symbol
 _atom_site_label
 _atom_site_symmetry_multiplicity
 _atom_site_fract_x
 _atom_site_fract_y
 _atom_site_fract_z
 _atom_site_occupancy
  C  C0  1  0.00000000  0.00000000  0.87435164  1
  C  C1  1  0.00000000  0.00000000  0.37435164  1
  C  C2  1  0.33333333  0.66666667  0.70800387  1
  C  C3  1  0.66666667  0.33333333  0.20800387  1
  C  C4  1  0.66666667  0.33333333  0.54152646  1
  C  C5  1  0.33333333  0.66666667  0.04152646  1
  Si  Si6  1  0.33333333  0.66666667  0.83298587  1
  Si  Si7  1  0.66666667  0.33333333  0.33298587  1
  Si  Si8  1  0.66666667  0.33333333  0.66650932  1
  Si  Si9  1  0.33333333  0.66666667  0.16650932  1
  Si  Si10  1  0.00000000  0.00000000  0.49972286  1
  Si  Si11  1  0.00000000  0.00000000  0.99972286  1
