# generated using pymatgen
data_NbBiO4
_symmetry_space_group_name_H-M   'P 1'
_cell_length_a   6.65314676
_cell_length_b   4.19102154
_cell_length_c   4.20383558
_cell_angle_alpha   88.96162155
_cell_angle_beta   66.66531435
_cell_angle_gamma   67.52710940
_symmetry_Int_Tables_number   1
_chemical_formula_structural   NbBiO4
_chemical_formula_sum   'Nb1 Bi1 O4'
_cell_volume   98.22180055
_cell_formula_units_Z   1
loop_
 _symmetry_equiv_pos_site_id
 _symmetry_equiv_pos_as_xyz
  1  'x, y, z'
loop_
 _atom_site_type_symbol
 _atom_site_label
 _atom_site_symmetry_multiplicity
 _atom_site_fract_x
 _atom_site_fract_y
 _atom_site_fract_z
 _atom_site_occupancy
  Nb  Nb0  1  -0.00039928  0.05364444  0.94252663  1
  Bi  Bi1  1  0.49815862  0.21361806  0.79274217  1
  O  O2  1  0.95021599  0.04669741  0.53185343  1
  O  O3  1  0.34785104  0.78687296  0.81204137  1
  O  O4  1  0.65293771  0.18100924  0.21838118  1
  O  O5  1  0.05123692  0.46815689  0.95245622  1
