# generated using pymatgen
data_CF4
_symmetry_space_group_name_H-M   'P 1'
_cell_length_a   4.47087282
_cell_length_b   4.90076437
_cell_length_c   7.87571006
_cell_angle_alpha   82.33818110
_cell_angle_beta   73.51051661
_cell_angle_gamma   62.86166915
_symmetry_Int_Tables_number   1
_chemical_formula_structural   CF4
_chemical_formula_sum   'C2 F8'
_cell_volume   147.24719486
_cell_formula_units_Z   2
loop_
 _symmetry_equiv_pos_site_id
 _symmetry_equiv_pos_as_xyz
  1  'x, y, z'
loop_
 _atom_site_type_symbol
 _atom_site_label
 _atom_site_symmetry_multiplicity
 _atom_site_fract_x
 _atom_site_fract_y
 _atom_site_fract_z
 _atom_site_occupancy
  C  C0  1  0.92608419  0.25000000  0.25000000  1
  C  C1  1  0.07391581  0.75000000  0.75000000  1
  F  F2  1  0.95835598  0.49087447  0.29141219  1
  F  F3  1  0.24064263  0.00912553  0.20858781  1
  F  F4  1  0.04164402  0.50912553  0.70858781  1
  F  F5  1  0.75935737  0.99087447  0.79141219  1
  F  F6  1  0.28096636  0.82259604  0.61070484  1
  F  F7  1  0.21426724  0.67740396  0.88929516  1
  F  F8  1  0.71903364  0.17740396  0.38929516  1
  F  F9  1  0.78573276  0.32259604  0.11070484  1
