# generated using pymatgen
data_Ca2Ga2Si(HO4)2
_symmetry_space_group_name_H-M   'P 1'
_cell_length_a   7.82083042
_cell_length_b   7.82083042
_cell_length_c   7.82083042
_cell_angle_alpha   109.07549134
_cell_angle_beta   109.07549134
_cell_angle_gamma   110.26561170
_symmetry_Int_Tables_number   1
_chemical_formula_structural   Ca2Ga2Si(HO4)2
_chemical_formula_sum   'Ca4 Ga4 Si2 H4 O16'
_cell_volume   368.19170358
_cell_formula_units_Z   2
loop_
 _symmetry_equiv_pos_site_id
 _symmetry_equiv_pos_as_xyz
  1  'x, y, z'
loop_
 _atom_site_type_symbol
 _atom_site_label
 _atom_site_symmetry_multiplicity
 _atom_site_fract_x
 _atom_site_fract_y
 _atom_site_fract_z
 _atom_site_occupancy
  Ca  Ca0  1  0.72458771  0.00392206  0.00929414  1
  Ca  Ca1  1  0.28470643  0.27541229  0.27933435  1
  Ca  Ca2  1  0.99462792  0.71529357  0.99070586  1
  Ca  Ca3  1  0.99607794  0.00537208  0.72066565  1
  Ga  Ga4  1  0.75579055  0.50256370  0.25590086  1
  Ga  Ga5  1  0.50011031  0.24420945  0.74677315  1
  Ga  Ga6  1  0.49743630  0.75333716  0.25322685  1
  Ga  Ga7  1  0.24666284  0.49988969  0.74409914  1
  Si  Si8  1  0.75000000  0.25000000  0.50000000  1
  Si  Si9  1  0.25000000  0.75000000  0.50000000  1
  H  H10  1  0.01053003  0.36272091  0.02458078  1
  H  H11  1  0.33814013  0.98594925  0.97541922  1
  H  H12  1  0.63727909  0.66185987  0.64780912  1
  H  H13  1  0.01405075  0.98946997  0.35219088  1
  O  O14  1  0.73987931  0.44258035  0.00071184  1
  O  O15  1  0.73093458  0.02206956  0.46171953  1
  O  O16  1  0.22574294  0.00275214  0.99162135  1
  O  O17  1  0.73078495  0.26906542  0.29113598  1
  O  O18  1  0.97793044  0.43964997  0.70886402  1
  O  O19  1  0.01113078  0.23412159  0.00837865  1
  O  O20  1  0.99724786  0.98886922  0.22299081  1
  O  O21  1  0.56035003  0.26921505  0.53828047  1
  O  O22  1  0.55741965  0.55813149  0.29729997  1
  O  O23  1  0.44186851  0.73916747  0.99928816  1
  O  O24  1  0.26083253  0.26012069  0.70270003  1
  O  O25  1  0.26441223  0.72986159  0.28848514  1
  O  O26  1  0.76587841  0.77425706  0.77700919  1
  O  O27  1  0.27013841  0.55862354  0.53454963  1
  O  O28  1  0.02407391  0.73558777  0.46545037  1
  O  O29  1  0.44137646  0.97592609  0.71151486  1
