# generated using pymatgen
data_VCr(P2O7)2
_symmetry_space_group_name_H-M   'P 1'
_cell_length_a   4.84691288
_cell_length_b   7.98981370
_cell_length_c   6.98577489
_cell_angle_alpha   90.60242638
_cell_angle_beta   107.64469635
_cell_angle_gamma   89.34196482
_symmetry_Int_Tables_number   1
_chemical_formula_structural   VCr(P2O7)2
_chemical_formula_sum   'V1 Cr1 P4 O14'
_cell_volume   257.77936266
_cell_formula_units_Z   1
loop_
 _symmetry_equiv_pos_site_id
 _symmetry_equiv_pos_as_xyz
  1  'x, y, z'
loop_
 _atom_site_type_symbol
 _atom_site_label
 _atom_site_symmetry_multiplicity
 _atom_site_fract_x
 _atom_site_fract_y
 _atom_site_fract_z
 _atom_site_occupancy
  V  V0  1  0.21013289  0.50528021  0.72120175  1
  Cr  Cr1  1  0.78736024  0.00578135  0.27369316  1
  P  P2  1  0.40207399  0.17495382  0.52113383  1
  P  P3  1  0.22235793  0.78175822  0.08971063  1
  P  P4  1  0.77996670  0.27909644  0.91168526  1
  P  P5  1  0.60046525  0.68352638  0.47625433  1
  O  O6  1  0.04179740  0.33809959  0.84968073  1
  O  O7  1  0.15371421  0.67337577  0.89333013  1
  O  O8  1  0.17314642  0.04266065  0.47772518  1
  O  O9  1  0.26498481  0.35262313  0.53467215  1
  O  O10  1  0.39712637  0.67069936  0.60897437  1
  O  O11  1  0.57302744  0.43297223  0.90093602  1
  O  O12  1  0.60252115  0.14472642  0.75072250  1
  O  O13  1  0.40905800  0.64308827  0.25031265  1
  O  O14  1  0.40547153  0.93230554  0.08385430  1
  O  O15  1  0.59336099  0.18565057  0.38807664  1
  O  O16  1  0.72830888  0.85512333  0.48621246  1
  O  O17  1  0.83552061  0.54491078  0.53351587  1
  O  O18  1  0.87356688  0.19246795  0.10981668  1
  O  O19  1  0.94592030  0.81997699  0.13811935  1
