# generated using pymatgen
data_Rb2S3
_symmetry_space_group_name_H-M   'P 1'
_cell_length_a   6.54443790
_cell_length_b   6.54443791
_cell_length_c   7.95987669
_cell_angle_alpha   90.00000000
_cell_angle_beta   90.00000000
_cell_angle_gamma   109.41744343
_symmetry_Int_Tables_number   1
_chemical_formula_structural   Rb2S3
_chemical_formula_sum   'Rb4 S6'
_cell_volume   321.52791441
_cell_formula_units_Z   2
loop_
 _symmetry_equiv_pos_site_id
 _symmetry_equiv_pos_as_xyz
  1  'x, y, z'
loop_
 _atom_site_type_symbol
 _atom_site_label
 _atom_site_symmetry_multiplicity
 _atom_site_fract_x
 _atom_site_fract_y
 _atom_site_fract_z
 _atom_site_occupancy
  S  S0  1  0.38205872  0.06622545  0.65170884  1
  S  S1  1  0.61794128  0.93377455  0.15170884  1
  S  S2  1  0.93377455  0.61794128  0.65170884  1
  S  S3  1  0.06622545  0.38205872  0.15170884  1
  S  S4  1  0.80035366  0.19964634  0.00683747  1
  S  S5  1  0.19964634  0.80035366  0.50683747  1
  Rb  Rb6  1  0.42007219  0.57992781  0.80907094  1
  Rb  Rb7  1  0.57992781  0.42007219  0.30907094  1
  Rb  Rb8  1  0.89385026  0.10614974  0.53807392  1
  Rb  Rb9  1  0.10614974  0.89385026  0.03807392  1
