# generated using pymatgen
data_SiO2
_symmetry_space_group_name_H-M   'P 1'
_cell_length_a   13.91974051
_cell_length_b   6.95973138
_cell_length_c   6.47266870
_cell_angle_alpha   90.00000000
_cell_angle_beta   90.00000000
_cell_angle_gamma   90.00000000
_symmetry_Int_Tables_number   1
_chemical_formula_structural   SiO2
_chemical_formula_sum   'Si10 O20'
_cell_volume   627.05696414
_cell_formula_units_Z   10
loop_
 _symmetry_equiv_pos_site_id
 _symmetry_equiv_pos_as_xyz
  1  'x, y, z'
loop_
 _atom_site_type_symbol
 _atom_site_label
 _atom_site_symmetry_multiplicity
 _atom_site_fract_x
 _atom_site_fract_y
 _atom_site_fract_z
 _atom_site_occupancy
  Si  Si0  1  0.11521759  0.00000000  0.50066029  1
  Si  Si1  1  0.61521759  0.00000000  0.49933971  1
  Si  Si2  1  0.88478241  0.00000000  0.49933971  1
  Si  Si3  1  0.38478241  0.00000000  0.50066029  1
  Si  Si4  1  0.25000000  0.26963071  0.26250657  1
  Si  Si5  1  0.75000000  0.73036929  0.73749343  1
  Si  Si6  1  0.75000000  0.26963071  0.73749343  1
  Si  Si7  1  0.25000000  0.73036929  0.26250657  1
  Si  Si8  1  0.25000000  0.00000000  0.88162807  1
  Si  Si9  1  0.75000000  0.00000000  0.11837193  1
  O  O10  1  0.00000000  0.00000000  0.50000000  1
  O  O11  1  0.50000000  0.00000000  0.50000000  1
  O  O12  1  0.15367179  0.19273986  0.38170227  1
  O  O13  1  0.65367179  0.80726014  0.61829773  1
  O  O14  1  0.84632821  0.19273986  0.61829773  1
  O  O15  1  0.34632821  0.80726014  0.38170227  1
  O  O16  1  0.84632821  0.80726014  0.61829773  1
  O  O17  1  0.34632821  0.19273986  0.38170227  1
  O  O18  1  0.15367179  0.80726014  0.38170227  1
  O  O19  1  0.65367179  0.19273986  0.61829773  1
  O  O20  1  0.15354860  0.00000000  0.73890491  1
  O  O21  1  0.65354860  0.00000000  0.26109509  1
  O  O22  1  0.84645140  0.00000000  0.26109509  1
  O  O23  1  0.34645140  0.00000000  0.73890491  1
  O  O24  1  0.25000000  0.50000000  0.26169397  1
  O  O25  1  0.75000000  0.50000000  0.73830603  1
  O  O26  1  0.25000000  0.19273284  0.02438322  1
  O  O27  1  0.75000000  0.80726716  0.97561678  1
  O  O28  1  0.75000000  0.19273284  0.97561678  1
  O  O29  1  0.25000000  0.80726716  0.02438322  1
