# generated using pymatgen
data_LiVCoO4
_symmetry_space_group_name_H-M   'P 1'
_cell_length_a   5.98204204
_cell_length_b   5.98205852
_cell_length_c   8.25342706
_cell_angle_alpha   90.00032153
_cell_angle_beta   90.00428233
_cell_angle_gamma   90.01221705
_symmetry_Int_Tables_number   1
_chemical_formula_structural   LiVCoO4
_chemical_formula_sum   'Li4 V4 Co4 O16'
_cell_volume   295.34826531
_cell_formula_units_Z   4
loop_
 _symmetry_equiv_pos_site_id
 _symmetry_equiv_pos_as_xyz
  1  'x, y, z'
loop_
 _atom_site_type_symbol
 _atom_site_label
 _atom_site_symmetry_multiplicity
 _atom_site_fract_x
 _atom_site_fract_y
 _atom_site_fract_z
 _atom_site_occupancy
  Li  Li0  1  0.00002151  0.24360803  0.00000696  1
  Li  Li1  1  0.99996852  0.75633873  0.50001625  1
  Li  Li2  1  0.24363782  0.00001749  0.24997266  1
  Li  Li3  1  0.75635976  0.99996311  0.75000496  1
  V  V4  1  0.21939754  0.50003627  0.24998627  1
  V  V5  1  0.50004288  0.21941660  0.00003291  1
  V  V6  1  0.49998160  0.78059396  0.50000350  1
  V  V7  1  0.78057820  0.49997634  0.74997545  1
  Co  Co8  1  0.25840966  0.25842103  0.62499781  1
  Co  Co9  1  0.25842270  0.74160170  0.87499274  1
  Co  Co10  1  0.74159474  0.25842283  0.37501140  1
  Co  Co11  1  0.74156259  0.74157701  0.12499765  1
  O  O12  1  0.02893317  0.27219212  0.25814794  1
  O  O13  1  0.02892072  0.72776097  0.24186757  1
  O  O14  1  0.27219858  0.02895447  0.99187214  1
  O  O15  1  0.27226385  0.97107546  0.50813725  1
  O  O16  1  0.26891153  0.48481884  0.02284837  1
  O  O17  1  0.26891702  0.51518883  0.47715243  1
  O  O18  1  0.48481553  0.26890442  0.22716263  1
  O  O19  1  0.48480548  0.73108046  0.27283755  1
  O  O20  1  0.51519938  0.26890844  0.77284674  1
  O  O21  1  0.51519250  0.73108118  0.72715042  1
  O  O22  1  0.73108668  0.51519792  0.52283845  1
  O  O23  1  0.73108684  0.48478824  0.97716339  1
  O  O24  1  0.72776282  0.02893892  0.00814404  1
  O  O25  1  0.72781507  0.97106334  0.49185354  1
  O  O26  1  0.97106401  0.27226749  0.74184841  1
  O  O27  1  0.97104928  0.72780580  0.75813054  1
