# generated using pymatgen
data_Li3P2WO8
_symmetry_space_group_name_H-M   'P 1'
_cell_length_a   8.04087680
_cell_length_b   5.61327663
_cell_length_c   6.26778385
_cell_angle_alpha   89.67632993
_cell_angle_beta   140.82800999
_cell_angle_gamma   69.94911612
_symmetry_Int_Tables_number   1
_chemical_formula_structural   Li3P2WO8
_chemical_formula_sum   'Li3 P2 W1 O8'
_cell_volume   149.26807545
_cell_formula_units_Z   1
loop_
 _symmetry_equiv_pos_site_id
 _symmetry_equiv_pos_as_xyz
  1  'x, y, z'
loop_
 _atom_site_type_symbol
 _atom_site_label
 _atom_site_symmetry_multiplicity
 _atom_site_fract_x
 _atom_site_fract_y
 _atom_site_fract_z
 _atom_site_occupancy
  Li  Li0  1  0.16595421  0.66104804  0.44677669  1
  Li  Li1  1  0.50034852  0.99176600  0.00023279  1
  Li  Li2  1  0.83834339  0.32576454  0.55606026  1
  P  P3  1  0.20374493  0.64641518  0.96846474  1
  P  P4  1  0.80046350  0.34545074  0.03542700  1
  W  W5  1  0.50198435  0.99617819  0.50195156  1
  O  O6  1  0.01639755  0.23620023  0.44446997  1
  O  O7  1  0.99222614  0.25140887  0.01518360  1
  O  O8  1  0.43525041  0.31111541  0.19766082  1
  O  O9  1  0.43137704  0.75592945  0.19038282  1
  O  O10  1  0.56991867  0.23935930  0.80921512  1
  O  O11  1  0.57230031  0.68111804  0.81175800  1
  O  O12  1  0.01167200  0.74284178  0.98815223  1
  O  O13  1  0.98861799  0.75084523  0.55987439  1
