# generated using pymatgen
data_Hg2TeO3
_symmetry_space_group_name_H-M   'P 1'
_cell_length_a   3.81499824
_cell_length_b   6.04243330
_cell_length_c   11.70946601
_cell_angle_alpha   90.00000000
_cell_angle_beta   90.00000000
_cell_angle_gamma   90.00000000
_symmetry_Int_Tables_number   1
_chemical_formula_structural   Hg2TeO3
_chemical_formula_sum   'Hg4 Te2 O6'
_cell_volume   269.92511639
_cell_formula_units_Z   2
loop_
 _symmetry_equiv_pos_site_id
 _symmetry_equiv_pos_as_xyz
  1  'x, y, z'
loop_
 _atom_site_type_symbol
 _atom_site_label
 _atom_site_symmetry_multiplicity
 _atom_site_fract_x
 _atom_site_fract_y
 _atom_site_fract_z
 _atom_site_occupancy
  O  O0  1  0.54925742  0.76859945  0.75000000  1
  O  O1  1  0.54925742  0.23140055  0.25000000  1
  O  O2  1  0.10420679  0.51995577  0.37371162  1
  O  O3  1  0.10420679  0.51995577  0.12628838  1
  O  O4  1  0.10420679  0.48004423  0.87371162  1
  O  O5  1  0.10420679  0.48004423  0.62628838  1
  Te  Te6  1  0.44147621  0.53260755  0.25000000  1
  Te  Te7  1  0.44147621  0.46739245  0.75000000  1
  Hg  Hg8  1  0.05387640  0.18622363  0.05603123  1
  Hg  Hg9  1  0.05387640  0.81377637  0.94396877  1
  Hg  Hg10  1  0.05387640  0.18622363  0.44396877  1
  Hg  Hg11  1  0.05387640  0.81377637  0.55603123  1
