# generated using pymatgen
data_RbTaN2
_symmetry_space_group_name_H-M   'P 1'
_cell_length_a   6.10515286
_cell_length_b   12.23563717
_cell_length_c   17.22112828
_cell_angle_alpha   90.00000000
_cell_angle_beta   90.00000000
_cell_angle_gamma   90.00000000
_symmetry_Int_Tables_number   1
_chemical_formula_structural   RbTaN2
_chemical_formula_sum   'Rb16 Ta16 N32'
_cell_volume   1286.42577822
_cell_formula_units_Z   16
loop_
 _symmetry_equiv_pos_site_id
 _symmetry_equiv_pos_as_xyz
  1  'x, y, z'
loop_
 _atom_site_type_symbol
 _atom_site_label
 _atom_site_symmetry_multiplicity
 _atom_site_fract_x
 _atom_site_fract_y
 _atom_site_fract_z
 _atom_site_occupancy
  Rb  Rb0  1  0.21133318  0.74108447  0.81383176  1
  Rb  Rb1  1  0.21133318  0.75891553  0.31383176  1
  Rb  Rb2  1  0.24416841  0.50188751  0.43774825  1
  Rb  Rb3  1  0.28866682  0.24108447  0.81383176  1
  Rb  Rb4  1  0.78866682  0.25891553  0.18616824  1
  Rb  Rb5  1  0.75583159  0.49811249  0.56225175  1
  Rb  Rb6  1  0.25583159  0.49811249  0.93774825  1
  Rb  Rb7  1  0.74416841  0.99811249  0.56225175  1
  Rb  Rb8  1  0.74416841  0.50188751  0.06225175  1
  Rb  Rb9  1  0.25583159  0.00188751  0.43774825  1
  Rb  Rb10  1  0.75583159  0.00188751  0.06225175  1
  Rb  Rb11  1  0.71133318  0.75891553  0.18616824  1
  Rb  Rb12  1  0.28866682  0.25891553  0.31383176  1
  Rb  Rb13  1  0.71133318  0.74108447  0.68616824  1
  Rb  Rb14  1  0.24416841  0.99811249  0.93774825  1
  Rb  Rb15  1  0.78866682  0.24108447  0.68616824  1
  Ta  Ta16  1  0.27297409  0.26229456  0.06321347  1
  Ta  Ta17  1  0.22702591  0.73770544  0.56321347  1
  Ta  Ta18  1  0.75883270  0.00823290  0.31170357  1
  Ta  Ta19  1  0.27297409  0.23770544  0.56321347  1
  Ta  Ta20  1  0.25883270  0.49176710  0.68829643  1
  Ta  Ta21  1  0.72702591  0.73770544  0.93678653  1
  Ta  Ta22  1  0.74116730  0.99176710  0.81170357  1
  Ta  Ta23  1  0.25883270  0.00823290  0.18829643  1
  Ta  Ta24  1  0.22702591  0.76229456  0.06321347  1
  Ta  Ta25  1  0.77297409  0.23770544  0.93678653  1
  Ta  Ta26  1  0.24116730  0.50823290  0.18829643  1
  Ta  Ta27  1  0.24116730  0.99176710  0.68829643  1
  Ta  Ta28  1  0.74116730  0.50823290  0.31170357  1
  Ta  Ta29  1  0.75883270  0.49176710  0.81170357  1
  Ta  Ta30  1  0.77297409  0.26229456  0.43678653  1
  Ta  Ta31  1  0.72702591  0.76229456  0.43678653  1
  N  N32  1  0.46021879  0.51233195  0.77463412  1
  N  N33  1  0.79602253  0.15487719  0.35362176  1
  N  N34  1  0.44345183  0.78341453  0.48647035  1
  N  N35  1  0.53978121  0.48766805  0.22536588  1
  N  N36  1  0.96021879  0.98766805  0.22536588  1
  N  N37  1  0.96021879  0.51233195  0.72536588  1
  N  N38  1  0.05654817  0.28341453  0.48647035  1
  N  N39  1  0.94345183  0.78341453  0.01352965  1
  N  N40  1  0.94345183  0.71658547  0.51352965  1
  N  N41  1  0.70397747  0.84512281  0.85362176  1
  N  N42  1  0.20397747  0.84512281  0.64637824  1
  N  N43  1  0.44345183  0.71658547  0.98647035  1
  N  N44  1  0.32091129  0.90094883  0.10750377  1
  N  N45  1  0.03978121  0.48766805  0.27463412  1
  N  N46  1  0.29602253  0.15487719  0.14637824  1
  N  N47  1  0.32091129  0.59905117  0.60750377  1
  N  N48  1  0.82091129  0.90094883  0.39249623  1
  N  N49  1  0.46021879  0.98766805  0.27463412  1
  N  N50  1  0.67908871  0.40094883  0.39249623  1
  N  N51  1  0.03978121  0.01233195  0.77463412  1
  N  N52  1  0.53978121  0.01233195  0.72536588  1
  N  N53  1  0.79602253  0.34512281  0.85362176  1
  N  N54  1  0.67908871  0.09905117  0.89249623  1
  N  N55  1  0.29602253  0.34512281  0.64637824  1
  N  N56  1  0.17908871  0.09905117  0.60750377  1
  N  N57  1  0.55654817  0.21658547  0.51352965  1
  N  N58  1  0.17908871  0.40094883  0.10750377  1
  N  N59  1  0.05654817  0.21658547  0.98647035  1
  N  N60  1  0.70397747  0.65487719  0.35362176  1
  N  N61  1  0.82091129  0.59905117  0.89249623  1
  N  N62  1  0.20397747  0.65487719  0.14637824  1
  N  N63  1  0.55654817  0.28341453  0.01352965  1
