# generated using pymatgen
data_SiH12C2(NF)6
_symmetry_space_group_name_H-M   'P 1'
_cell_length_a   7.40684596
_cell_length_b   7.40684596
_cell_length_c   6.22119002
_cell_angle_alpha   68.77034931
_cell_angle_beta   111.22965069
_cell_angle_gamma   120.28287016
_symmetry_Int_Tables_number   1
_chemical_formula_structural   SiH12C2(NF)6
_chemical_formula_sum   'Si1 H12 C2 N6 F6'
_cell_volume   267.81096728
_cell_formula_units_Z   1
loop_
 _symmetry_equiv_pos_site_id
 _symmetry_equiv_pos_as_xyz
  1  'x, y, z'
loop_
 _atom_site_type_symbol
 _atom_site_label
 _atom_site_symmetry_multiplicity
 _atom_site_fract_x
 _atom_site_fract_y
 _atom_site_fract_z
 _atom_site_occupancy
  Si  Si0  1  0.00000000  0.00000000  0.00000000  1
  H  H1  1  0.54314785  0.00935415  0.74773966  1
  H  H2  1  0.99064585  0.45685215  0.74773966  1
  H  H3  1  0.45685215  0.99064585  0.25226034  1
  H  H4  1  0.00935415  0.54314785  0.25226034  1
  H  H5  1  0.30398772  0.01087550  0.73790215  1
  H  H6  1  0.98912450  0.69601228  0.73790215  1
  H  H7  1  0.69601228  0.98912450  0.26209785  1
  H  H8  1  0.01087550  0.30398772  0.26209785  1
  H  H9  1  0.30533546  0.45790040  0.74706411  1
  H  H10  1  0.54209960  0.69466454  0.74706411  1
  H  H11  1  0.69466454  0.54209960  0.25293589  1
  H  H12  1  0.45790040  0.30533546  0.25293589  1
  C  C13  1  0.27549145  0.72450855  0.72762311  1
  C  C14  1  0.72450855  0.27549145  0.27237689  1
  N  N15  1  0.37937496  0.62062504  0.72387888  1
  N  N16  1  0.62062504  0.37937496  0.27612112  1
  N  N17  1  0.38080588  0.93379742  0.72659036  1
  N  N18  1  0.06620258  0.61919412  0.72659036  1
  N  N19  1  0.61919412  0.06620258  0.27340964  1
  N  N20  1  0.93379742  0.38080588  0.27340964  1
  F  F21  1  0.17967300  0.14961266  0.81820253  1
  F  F22  1  0.85038734  0.82032700  0.81820253  1
  F  F23  1  0.82032700  0.85038734  0.18179747  1
  F  F24  1  0.14961266  0.17967300  0.18179747  1
  F  F25  1  0.85430774  0.14569226  0.83286222  1
  F  F26  1  0.14569226  0.85430774  0.16713778  1
