# generated using pymatgen
data_Li4VCr3O8
_symmetry_space_group_name_H-M   'P 1'
_cell_length_a   5.13928166
_cell_length_b   5.95437321
_cell_length_c   5.93056981
_cell_angle_alpha   60.11786411
_cell_angle_beta   90.00401267
_cell_angle_gamma   73.23309673
_symmetry_Int_Tables_number   1
_chemical_formula_structural   Li4VCr3O8
_chemical_formula_sum   'Li4 V1 Cr3 O8'
_cell_volume   148.38785426
_cell_formula_units_Z   1
loop_
 _symmetry_equiv_pos_site_id
 _symmetry_equiv_pos_as_xyz
  1  'x, y, z'
loop_
 _atom_site_type_symbol
 _atom_site_label
 _atom_site_symmetry_multiplicity
 _atom_site_fract_x
 _atom_site_fract_y
 _atom_site_fract_z
 _atom_site_occupancy
  Li  Li0  1  0.99555378  0.00302457  0.99850740  1
  Li  Li1  1  0.00444622  0.99697443  0.50149260  1
  Li  Li2  1  0.50000000  0.00000000  0.25000000  1
  Li  Li3  1  0.50000000  0.00000000  0.75000000  1
  V  V4  1  0.50000000  0.50000000  0.24999900  1
  Cr  Cr5  1  0.00002882  0.50000177  0.00116465  1
  Cr  Cr6  1  0.99997118  0.49999823  0.49883535  1
  Cr  Cr7  1  0.50000000  0.50000000  0.75000000  1
  O  O8  1  0.23843370  0.26940414  0.36537611  1
  O  O9  1  0.24159738  0.27725264  0.86143987  1
  O  O10  1  0.74331818  0.27222838  0.11234669  1
  O  O11  1  0.25668082  0.72777062  0.38765531  1
  O  O12  1  0.25669467  0.72777546  0.88443824  1
  O  O13  1  0.76156630  0.73059586  0.13462389  1
  O  O14  1  0.74330533  0.27222454  0.61556076  1
  O  O15  1  0.75840262  0.72274836  0.63855913  1
