# generated using pymatgen
data_NaBiO3
_symmetry_space_group_name_H-M   'P 1'
_cell_length_a   6.35110419
_cell_length_b   6.35110419
_cell_length_c   6.35110418
_cell_angle_alpha   53.14664358
_cell_angle_beta   53.14664348
_cell_angle_gamma   53.14664352
_symmetry_Int_Tables_number   1
_chemical_formula_structural   NaBiO3
_chemical_formula_sum   'Na2 Bi2 O6'
_cell_volume   152.06321052
_cell_formula_units_Z   2
loop_
 _symmetry_equiv_pos_site_id
 _symmetry_equiv_pos_as_xyz
  1  'x, y, z'
loop_
 _atom_site_type_symbol
 _atom_site_label
 _atom_site_symmetry_multiplicity
 _atom_site_fract_x
 _atom_site_fract_y
 _atom_site_fract_z
 _atom_site_occupancy
  O  O0  1  0.05760710  0.70423181  0.46191854  1
  O  O1  1  0.70423181  0.46191854  0.05760710  1
  O  O2  1  0.46191854  0.05760710  0.70423181  1
  O  O3  1  0.94239290  0.29576819  0.53808146  1
  O  O4  1  0.53808146  0.94239290  0.29576819  1
  O  O5  1  0.29576819  0.53808146  0.94239290  1
  Na  Na6  1  0.13798516  0.13798516  0.13798516  1
  Na  Na7  1  0.86201484  0.86201484  0.86201484  1
  Bi  Bi8  1  0.34265135  0.34265135  0.34265135  1
  Bi  Bi9  1  0.65734865  0.65734865  0.65734865  1
