# generated using pymatgen
data_Ag2PSe3
_symmetry_space_group_name_H-M   'P 1'
_cell_length_a   6.63126183
_cell_length_b   11.75556468
_cell_length_c   14.70132352
_cell_angle_alpha   90.00000000
_cell_angle_beta   90.00000000
_cell_angle_gamma   90.00000000
_symmetry_Int_Tables_number   1
_chemical_formula_structural   Ag2PSe3
_chemical_formula_sum   'Ag16 P8 Se24'
_cell_volume   1146.03031606
_cell_formula_units_Z   8
loop_
 _symmetry_equiv_pos_site_id
 _symmetry_equiv_pos_as_xyz
  1  'x, y, z'
loop_
 _atom_site_type_symbol
 _atom_site_label
 _atom_site_symmetry_multiplicity
 _atom_site_fract_x
 _atom_site_fract_y
 _atom_site_fract_z
 _atom_site_occupancy
  P  P0  1  0.35751288  0.71926531  0.05064477  1
  P  P1  1  0.85751288  0.28073469  0.44935523  1
  P  P2  1  0.14248712  0.21926531  0.94935523  1
  P  P3  1  0.64248712  0.78073469  0.55064477  1
  P  P4  1  0.31264063  0.75501580  0.20568633  1
  P  P5  1  0.81264063  0.24498420  0.29431367  1
  P  P6  1  0.18735937  0.25501580  0.79431367  1
  P  P7  1  0.68735937  0.74498420  0.70568633  1
  Se  Se8  1  0.50941555  0.55114455  0.04008465  1
  Se  Se9  1  0.00941555  0.44885545  0.45991535  1
  Se  Se10  1  0.99058445  0.05114455  0.95991535  1
  Se  Se11  1  0.49058445  0.94885545  0.54008465  1
  Se  Se12  1  0.05281002  0.72033409  0.98895085  1
  Se  Se13  1  0.55281002  0.27966591  0.51104915  1
  Se  Se14  1  0.44718998  0.22033409  0.01104915  1
  Se  Se15  1  0.94718998  0.77966591  0.48895085  1
  Se  Se16  1  0.38562769  0.73646947  0.76909745  1
  Se  Se17  1  0.88562769  0.26353053  0.73090255  1
  Se  Se18  1  0.11437231  0.23646947  0.23090255  1
  Se  Se19  1  0.61437231  0.76353053  0.26909745  1
  Se  Se20  1  0.86904058  0.88720337  0.76390868  1
  Se  Se21  1  0.36904058  0.11279663  0.73609132  1
  Se  Se22  1  0.63095942  0.38720337  0.23609132  1
  Se  Se23  1  0.13095942  0.61279663  0.26390868  1
  Se  Se24  1  0.84088514  0.57361485  0.71300151  1
  Se  Se25  1  0.34088514  0.42638515  0.78699849  1
  Se  Se26  1  0.65911486  0.07361485  0.28699849  1
  Se  Se27  1  0.15911486  0.92638515  0.21300151  1
  Se  Se28  1  0.45763886  0.63445188  0.49611293  1
  Se  Se29  1  0.95763886  0.36554812  0.00388707  1
  Se  Se30  1  0.04236114  0.13445188  0.50388707  1
  Se  Se31  1  0.54236114  0.86554812  0.99611293  1
  Ag  Ag32  1  0.03008248  0.53674582  0.87889487  1
  Ag  Ag33  1  0.53008248  0.46325418  0.62110513  1
  Ag  Ag34  1  0.46991752  0.03674582  0.12110513  1
  Ag  Ag35  1  0.96991752  0.96325418  0.37889487  1
  Ag  Ag36  1  0.71426034  0.55464061  0.35711376  1
  Ag  Ag37  1  0.21426034  0.44535939  0.14288624  1
  Ag  Ag38  1  0.78573966  0.05464061  0.64288624  1
  Ag  Ag39  1  0.28573966  0.94535939  0.85711376  1
  Ag  Ag40  1  0.82537772  0.86591216  0.12527198  1
  Ag  Ag41  1  0.32537772  0.13408784  0.37472802  1
  Ag  Ag42  1  0.67462228  0.36591216  0.87472802  1
  Ag  Ag43  1  0.17462228  0.63408784  0.62527198  1
  Ag  Ag44  1  0.83332992  0.61100025  0.13778096  1
  Ag  Ag45  1  0.33332992  0.38899975  0.36221904  1
  Ag  Ag46  1  0.66667008  0.11100025  0.86221904  1
  Ag  Ag47  1  0.16667008  0.88899975  0.63778096  1
