# generated using pymatgen
data_Li3FePO5
_symmetry_space_group_name_H-M   'P 1'
_cell_length_a   4.98073755
_cell_length_b   5.52206722
_cell_length_c   15.90947275
_cell_angle_alpha   90.00000000
_cell_angle_beta   90.00000000
_cell_angle_gamma   90.00000000
_symmetry_Int_Tables_number   1
_chemical_formula_structural   Li3FePO5
_chemical_formula_sum   'Li12 Fe4 P4 O20'
_cell_volume   437.57362235
_cell_formula_units_Z   4
loop_
 _symmetry_equiv_pos_site_id
 _symmetry_equiv_pos_as_xyz
  1  'x, y, z'
loop_
 _atom_site_type_symbol
 _atom_site_label
 _atom_site_symmetry_multiplicity
 _atom_site_fract_x
 _atom_site_fract_y
 _atom_site_fract_z
 _atom_site_occupancy
  Li  Li0  1  0.00609237  0.65928201  0.59344486  1
  Li  Li1  1  0.00609237  0.15928201  0.90655514  1
  Li  Li2  1  0.00650332  0.66908005  0.00292415  1
  Li  Li3  1  0.00650332  0.16908005  0.49707585  1
  Li  Li4  1  0.49264220  0.33039813  0.80389768  1
  Li  Li5  1  0.49264220  0.83039813  0.69610232  1
  Li  Li6  1  0.50609237  0.34071799  0.40655514  1
  Li  Li7  1  0.50609237  0.84071799  0.09344486  1
  Li  Li8  1  0.50650332  0.33091995  0.99707585  1
  Li  Li9  1  0.50650332  0.83091995  0.50292415  1
  Li  Li10  1  0.99264220  0.16960187  0.30389768  1
  Li  Li11  1  0.99264220  0.66960187  0.19610232  1
  Fe  Fe12  1  0.01443487  0.16893366  0.70480493  1
  Fe  Fe13  1  0.01443487  0.66893366  0.79519507  1
  Fe  Fe14  1  0.51443487  0.33106634  0.20480493  1
  Fe  Fe15  1  0.51443487  0.83106634  0.29519507  1
  P  P16  1  0.99936393  0.16527665  0.09808572  1
  P  P17  1  0.99936393  0.66527665  0.40191428  1
  P  P18  1  0.49936393  0.33472335  0.59808572  1
  P  P19  1  0.49936393  0.83472335  0.90191428  1
  O  O20  1  0.10185328  0.33109735  0.80962100  1
  O  O21  1  0.10185328  0.83109735  0.69037900  1
  O  O22  1  0.10719146  0.31018480  0.02083866  1
  O  O23  1  0.10719146  0.81018480  0.47916134  1
  O  O24  1  0.10146743  0.39957183  0.40217587  1
  O  O25  1  0.10146743  0.89957183  0.09782413  1
  O  O26  1  0.09017171  0.29456654  0.18154285  1
  O  O27  1  0.09017171  0.79456654  0.31845715  1
  O  O28  1  0.18407944  0.33133476  0.59477104  1
  O  O29  1  0.18407944  0.83133476  0.90522896  1
  O  O30  1  0.60185328  0.16890265  0.30962100  1
  O  O31  1  0.60185328  0.66890265  0.19037900  1
  O  O32  1  0.60719146  0.18981520  0.52083866  1
  O  O33  1  0.60719146  0.68981520  0.97916134  1
  O  O34  1  0.60146743  0.10042817  0.90217587  1
  O  O35  1  0.60146743  0.60042817  0.59782413  1
  O  O36  1  0.59017171  0.20543346  0.68154285  1
  O  O37  1  0.59017171  0.70543346  0.81845715  1
  O  O38  1  0.68407944  0.16866524  0.09477104  1
  O  O39  1  0.68407944  0.66866524  0.40522896  1
