# generated using pymatgen
data_SrSi7N10
_symmetry_space_group_name_H-M   'P 1'
_cell_length_a   6.77542375
_cell_length_b   6.88371256
_cell_length_c   9.67906160
_cell_angle_alpha   106.07906117
_cell_angle_beta   90.00000000
_cell_angle_gamma   90.00000000
_symmetry_Int_Tables_number   1
_chemical_formula_structural   SrSi7N10
_chemical_formula_sum   'Sr2 Si14 N20'
_cell_volume   433.77227896
_cell_formula_units_Z   2
loop_
 _symmetry_equiv_pos_site_id
 _symmetry_equiv_pos_as_xyz
  1  'x, y, z'
loop_
 _atom_site_type_symbol
 _atom_site_label
 _atom_site_symmetry_multiplicity
 _atom_site_fract_x
 _atom_site_fract_y
 _atom_site_fract_z
 _atom_site_occupancy
  Sr  Sr0  1  0.94801968  0.04384722  0.33142944  1
  Sr  Sr1  1  0.05198032  0.04384722  0.83142944  1
  Si  Si2  1  0.02595519  0.46006555  0.17186804  1
  Si  Si3  1  0.39427675  0.89107986  0.42659698  1
  Si  Si4  1  0.38082172  0.70389160  0.11611330  1
  Si  Si5  1  0.02660586  0.64602565  0.48335096  1
  Si  Si6  1  0.62384821  0.15092330  0.69091152  1
  Si  Si7  1  0.37083541  0.51638851  0.81230482  1
  Si  Si8  1  0.63498345  0.33431059  0.00694749  1
  Si  Si9  1  0.61917828  0.70389160  0.61611330  1
  Si  Si10  1  0.36501655  0.33431059  0.50694749  1
  Si  Si11  1  0.62916459  0.51638851  0.31230482  1
  Si  Si12  1  0.60572325  0.89107986  0.92659698  1
  Si  Si13  1  0.97404481  0.46006555  0.67186804  1
  Si  Si14  1  0.37615179  0.15092330  0.19091152  1
  Si  Si15  1  0.97339414  0.64602565  0.98335096  1
  N  N16  1  0.16422549  0.84584588  0.47882962  1
  N  N17  1  0.12972991  0.68081634  0.13532686  1
  N  N18  1  0.38310887  0.11254184  0.36716345  1
  N  N19  1  0.86843473  0.43213202  0.02296466  1
  N  N20  1  0.42278665  0.92131707  0.06181942  1
  N  N21  1  0.15506742  0.25176297  0.16992508  1
  N  N22  1  0.49825457  0.71383136  0.27592513  1
  N  N23  1  0.58433902  0.29634273  0.17548334  1
  N  N24  1  0.57721335  0.92131707  0.56181942  1
  N  N25  1  0.84493258  0.25176297  0.66992508  1
  N  N26  1  0.50174543  0.71383136  0.77592513  1
  N  N27  1  0.61689113  0.11254184  0.86716345  1
  N  N28  1  0.83577451  0.84584588  0.97882962  1
  N  N29  1  0.88237351  0.55474938  0.32757143  1
  N  N30  1  0.87027009  0.68081634  0.63532686  1
  N  N31  1  0.11762649  0.55474938  0.82757143  1
  N  N32  1  0.53781965  0.50182814  0.47616847  1
  N  N33  1  0.41566098  0.29634273  0.67548334  1
  N  N34  1  0.46218035  0.50182814  0.97616847  1
  N  N35  1  0.13156527  0.43213202  0.52296466  1
