# generated using pymatgen
data_H2Pb3O4
_symmetry_space_group_name_H-M   'P 1'
_cell_length_a   8.31931375
_cell_length_b   8.31931375
_cell_length_c   9.44910172
_cell_angle_alpha   90.00000000
_cell_angle_beta   90.00000000
_cell_angle_gamma   90.00000000
_symmetry_Int_Tables_number   1
_chemical_formula_structural   H2Pb3O4
_chemical_formula_sum   'H8 Pb12 O16'
_cell_volume   653.98160217
_cell_formula_units_Z   4
loop_
 _symmetry_equiv_pos_site_id
 _symmetry_equiv_pos_as_xyz
  1  'x, y, z'
loop_
 _atom_site_type_symbol
 _atom_site_label
 _atom_site_symmetry_multiplicity
 _atom_site_fract_x
 _atom_site_fract_y
 _atom_site_fract_z
 _atom_site_occupancy
  H  H0  1  0.66173516  0.82306536  0.74016190  1
  H  H1  1  0.33826484  0.17693464  0.74016190  1
  H  H2  1  0.67693464  0.83826484  0.24016190  1
  H  H3  1  0.17693464  0.66173516  0.25983810  1
  H  H4  1  0.82306536  0.33826484  0.25983810  1
  H  H5  1  0.83826484  0.32306536  0.75983810  1
  H  H6  1  0.16173516  0.67693464  0.75983810  1
  H  H7  1  0.32306536  0.16173516  0.24016190  1
  O  O8  1  0.80661522  0.91857307  0.87175863  1
  O  O9  1  0.19338478  0.08142693  0.87175863  1
  O  O10  1  0.58142693  0.69338478  0.37175863  1
  O  O11  1  0.08142693  0.80661522  0.12824137  1
  O  O12  1  0.25096734  0.10757671  0.17114540  1
  O  O13  1  0.10757671  0.74903266  0.82885460  1
  O  O14  1  0.89242329  0.25096734  0.82885460  1
  O  O15  1  0.75096734  0.39242329  0.32885460  1
  O  O16  1  0.24903266  0.60757671  0.32885460  1
  O  O17  1  0.74903266  0.89242329  0.17114540  1
  O  O18  1  0.39242329  0.24903266  0.67114540  1
  O  O19  1  0.60757671  0.75096734  0.67114540  1
  O  O20  1  0.41857307  0.30661522  0.37175863  1
  O  O21  1  0.30661522  0.58142693  0.62824137  1
  O  O22  1  0.69338478  0.41857307  0.62824137  1
  O  O23  1  0.91857307  0.19338478  0.12824137  1
  Pb  Pb24  1  0.50000000  0.50000000  0.77811792  1
  Pb  Pb25  1  0.50000000  0.50000000  0.22188208  1
  Pb  Pb26  1  0.00000000  0.00000000  0.72188208  1
  Pb  Pb27  1  0.00000000  0.00000000  0.27811792  1
  Pb  Pb28  1  0.79500238  0.62439161  0.50350062  1
  Pb  Pb29  1  0.20499762  0.37560839  0.50350062  1
  Pb  Pb30  1  0.87560839  0.70499762  0.00350062  1
  Pb  Pb31  1  0.37560839  0.79500238  0.49649938  1
  Pb  Pb32  1  0.62439161  0.20499762  0.49649938  1
  Pb  Pb33  1  0.70499762  0.12439161  0.99649938  1
  Pb  Pb34  1  0.29500238  0.87560839  0.99649938  1
  Pb  Pb35  1  0.12439161  0.29500238  0.00350062  1
