# generated using pymatgen
data_BBr
_symmetry_space_group_name_H-M   'P 1'
_cell_length_a   9.94469165
_cell_length_b   10.09141759
_cell_length_c   10.01771336
_cell_angle_alpha   87.29719464
_cell_angle_beta   85.73712037
_cell_angle_gamma   86.54771381
_symmetry_Int_Tables_number   1
_chemical_formula_structural   BBr
_chemical_formula_sum   'B18 Br18'
_cell_volume   999.81713645
_cell_formula_units_Z   18
loop_
 _symmetry_equiv_pos_site_id
 _symmetry_equiv_pos_as_xyz
  1  'x, y, z'
loop_
 _atom_site_type_symbol
 _atom_site_label
 _atom_site_symmetry_multiplicity
 _atom_site_fract_x
 _atom_site_fract_y
 _atom_site_fract_z
 _atom_site_occupancy
  B  B0  1  0.12875565  0.25837178  0.26538982  1
  B  B1  1  0.20024013  0.40846331  0.21058932  1
  B  B2  1  0.20951083  0.20120844  0.40938539  1
  B  B3  1  0.25983207  0.26374555  0.12855568  1
  B  B4  1  0.26639704  0.13052657  0.25694651  1
  B  B5  1  0.23932666  0.36963795  0.37657961  1
  B  B6  1  0.37719424  0.24076188  0.36729830  1
  B  B7  1  0.37118114  0.37550942  0.23931920  1
  B  B8  1  0.41311303  0.21035017  0.19677445  1
  B  B9  1  0.59271655  0.78951295  0.79775117  1
  B  B10  1  0.63204280  0.62359192  0.76015183  1
  B  B11  1  0.63154619  0.75780332  0.62882282  1
  B  B12  1  0.76206889  0.62316036  0.62307214  1
  B  B13  1  0.74216274  0.73433714  0.87006659  1
  B  B14  1  0.74034986  0.86586636  0.73746734  1
  B  B15  1  0.80259770  0.78898496  0.58896346  1
  B  B16  1  0.80312330  0.58834565  0.78945694  1
  B  B17  1  0.87718882  0.73864236  0.73880624  1
  Br  Br18  1  0.11771872  0.56642161  0.13693972  1
  Br  Br19  1  0.06430922  0.76422427  0.76293599  1
  Br  Br20  1  0.13473841  0.11860457  0.56910193  1
  Br  Br21  1  0.20540621  0.49655641  0.51374042  1
  Br  Br22  1  0.23538621  0.24436200  0.94163421  1
  Br  Br23  1  0.25032434  0.94416959  0.23165036  1
  Br  Br24  1  0.43029306  0.86601781  0.88097681  1
  Br  Br25  1  0.49814838  0.51096562  0.20496663  1
  Br  Br26  1  0.51350759  0.20520842  0.49222682  1
  Br  Br27  1  0.49945923  0.79732017  0.49929143  1
  Br  Br28  1  0.50220317  0.48986770  0.79532497  1
  Br  Br29  1  0.57429863  0.13610575  0.11160911  1
  Br  Br30  1  0.75845040  0.05384151  0.75562227  1
  Br  Br31  1  0.76320653  0.75568239  0.05810565  1
  Br  Br32  1  0.79274689  0.49251285  0.48915496  1
  Br  Br33  1  0.94068391  0.23142627  0.24744977  1
  Br  Br34  1  0.88498741  0.43025877  0.86398778  1
  Br  Br35  1  0.88398404  0.86543420  0.42918437  1
