# generated using pymatgen
data_CsB3PbF12
_symmetry_space_group_name_H-M   'P 1'
_cell_length_a   6.86533571
_cell_length_b   6.89184780
_cell_length_c   6.89184782
_cell_angle_alpha   94.56274871
_cell_angle_beta   90.82859048
_cell_angle_gamma   90.82858899
_symmetry_Int_Tables_number   1
_chemical_formula_structural   CsB3PbF12
_chemical_formula_sum   'Cs1 B3 Pb1 F12'
_cell_volume   324.97944707
_cell_formula_units_Z   1
loop_
 _symmetry_equiv_pos_site_id
 _symmetry_equiv_pos_as_xyz
  1  'x, y, z'
loop_
 _atom_site_type_symbol
 _atom_site_label
 _atom_site_symmetry_multiplicity
 _atom_site_fract_x
 _atom_site_fract_y
 _atom_site_fract_z
 _atom_site_occupancy
  Cs  Cs0  1  0.40927404  0.47849839  0.47849839  1
  B  B1  1  0.48783465  0.00821809  0.00821809  1
  B  B2  1  0.02031846  0.97724245  0.50645535  1
  B  B3  1  0.02031846  0.50645535  0.97724245  1
  Pb  Pb4  1  0.93489022  0.04847519  0.04847519  1
  F  F5  1  0.57879992  0.06356365  0.83721660  1
  F  F6  1  0.57879992  0.83721660  0.06356365  1
  F  F7  1  0.51900553  0.15876609  0.15876609  1
  F  F8  1  0.28591572  0.97238348  0.97238348  1
  F  F9  1  0.12415609  0.10169796  0.38238334  1
  F  F10  1  0.12225360  0.80684754  0.52317781  1
  F  F11  1  0.00181435  0.08196497  0.69236904  1
  F  F12  1  0.83418149  0.94126880  0.41947225  1
  F  F13  1  0.12225360  0.52317781  0.80684754  1
  F  F14  1  0.12415609  0.38238334  0.10169796  1
  F  F15  1  0.00181435  0.69236904  0.08196497  1
  F  F16  1  0.83418149  0.41947225  0.94126880  1
