# generated using pymatgen
data_Na4MgO3
_symmetry_space_group_name_H-M   'P 1'
_cell_length_a   6.33277707
_cell_length_b   6.33277707
_cell_length_c   8.11419011
_cell_angle_alpha   70.29970274
_cell_angle_beta   109.70029726
_cell_angle_gamma   124.05927005
_symmetry_Int_Tables_number   1
_chemical_formula_structural   Na4MgO3
_chemical_formula_sum   'Na8 Mg2 O6'
_cell_volume   249.18041989
_cell_formula_units_Z   2
loop_
 _symmetry_equiv_pos_site_id
 _symmetry_equiv_pos_as_xyz
  1  'x, y, z'
loop_
 _atom_site_type_symbol
 _atom_site_label
 _atom_site_symmetry_multiplicity
 _atom_site_fract_x
 _atom_site_fract_y
 _atom_site_fract_z
 _atom_site_occupancy
  Na  Na0  1  0.51408432  0.92173473  0.83900536  1
  Na  Na1  1  0.07826527  0.48591568  0.33900536  1
  Na  Na2  1  0.73187365  0.97183292  0.53802506  1
  Na  Na3  1  0.96884470  0.73260915  0.93182695  1
  Na  Na4  1  0.02816708  0.26812635  0.03802506  1
  Na  Na5  1  0.26739085  0.03115530  0.43182695  1
  Na  Na6  1  0.87904582  0.44826495  0.63756890  1
  Na  Na7  1  0.55173505  0.12095418  0.13756890  1
  Mg  Mg8  1  0.33670728  0.38055834  0.75274418  1
  Mg  Mg9  1  0.61944166  0.66329272  0.25274418  1
  O  O10  1  0.32107843  0.68587245  0.60210262  1
  O  O11  1  0.31412755  0.67892157  0.10210262  1
  O  O12  1  0.64143608  0.34664547  0.84774113  1
  O  O13  1  0.65335453  0.35856392  0.34774113  1
  O  O14  1  0.99369853  0.11413080  0.80335580  1
  O  O15  1  0.88586920  0.00630147  0.30335580  1
