# generated using pymatgen
data_Li3TeHO4
_symmetry_space_group_name_H-M   'P 1'
_cell_length_a   6.86575821
_cell_length_b   6.41739829
_cell_length_c   5.52695037
_cell_angle_alpha   90.00000000
_cell_angle_beta   113.26049854
_cell_angle_gamma   90.00000000
_symmetry_Int_Tables_number   1
_chemical_formula_structural   Li3TeHO4
_chemical_formula_sum   'Li6 Te2 H2 O8'
_cell_volume   223.72560842
_cell_formula_units_Z   2
loop_
 _symmetry_equiv_pos_site_id
 _symmetry_equiv_pos_as_xyz
  1  'x, y, z'
loop_
 _atom_site_type_symbol
 _atom_site_label
 _atom_site_symmetry_multiplicity
 _atom_site_fract_x
 _atom_site_fract_y
 _atom_site_fract_z
 _atom_site_occupancy
  Li  Li0  1  0.64918095  0.25000000  0.71768072  1
  Li  Li1  1  0.35081905  0.75000000  0.28231928  1
  Li  Li2  1  0.65173557  0.48480269  0.25190647  1
  Li  Li3  1  0.34826443  0.98480269  0.74809353  1
  Li  Li4  1  0.34826443  0.51519731  0.74809353  1
  Li  Li5  1  0.65173557  0.01519731  0.25190647  1
  Te  Te6  1  0.18565507  0.25000000  0.17529528  1
  Te  Te7  1  0.81434493  0.75000000  0.82470472  1
  H  H8  1  0.93804659  0.25000000  0.51608099  1
  H  H9  1  0.06195341  0.75000000  0.48391901  1
  O  O10  1  0.32202888  0.25000000  0.54799598  1
  O  O11  1  0.67797112  0.75000000  0.45200402  1
  O  O12  1  0.32783952  0.47513547  0.09440828  1
  O  O13  1  0.67216048  0.97513547  0.90559172  1
  O  O14  1  0.67216048  0.52486453  0.90559172  1
  O  O15  1  0.32783952  0.02486453  0.09440828  1
  O  O16  1  0.78616257  0.25000000  0.47346007  1
  O  O17  1  0.21383743  0.75000000  0.52653993  1
