# generated using pymatgen
data_Li5Cu(PO4)2
_symmetry_space_group_name_H-M   'P 1'
_cell_length_a   6.17498462
_cell_length_b   10.75136412
_cell_length_c   5.08058054
_cell_angle_alpha   90.00000000
_cell_angle_beta   90.00000000
_cell_angle_gamma   89.47254207
_symmetry_Int_Tables_number   1
_chemical_formula_structural   Li5Cu(PO4)2
_chemical_formula_sum   'Li10 Cu2 P4 O16'
_cell_volume   337.28295028
_cell_formula_units_Z   2
loop_
 _symmetry_equiv_pos_site_id
 _symmetry_equiv_pos_as_xyz
  1  'x, y, z'
loop_
 _atom_site_type_symbol
 _atom_site_label
 _atom_site_symmetry_multiplicity
 _atom_site_fract_x
 _atom_site_fract_y
 _atom_site_fract_z
 _atom_site_occupancy
  Li  Li0  1  0.00232995  0.33626902  0.79840585  1
  Li  Li1  1  0.74932736  0.92512893  0.30209786  1
  Li  Li2  1  0.74932736  0.42512893  0.19790214  1
  Li  Li3  1  0.00232995  0.83626902  0.70159415  1
  Li  Li4  1  0.24955491  0.07422378  0.70497801  1
  Li  Li5  1  0.24955491  0.57422378  0.79502199  1
  Li  Li6  1  0.49797428  0.33557856  0.80262621  1
  Li  Li7  1  0.49797428  0.83557856  0.69737379  1
  Li  Li8  1  0.50349349  0.16389246  0.30814428  1
  Li  Li9  1  0.50349349  0.66389246  0.19185572  1
  O  O10  1  0.26276355  0.04642650  0.30634629  1
  O  O11  1  0.95552112  0.65648694  0.77891046  1
  O  O12  1  0.04552404  0.34949218  0.19443259  1
  O  O13  1  0.04552404  0.84949218  0.30556741  1
  O  O14  1  0.74758649  0.95135141  0.69807870  1
  O  O15  1  0.25091996  0.91136240  0.88985422  1
  O  O16  1  0.25091996  0.41136240  0.61014578  1
  O  O17  1  0.26276355  0.54642650  0.19365371  1
  O  O18  1  0.45886595  0.33835778  0.20325131  1
  O  O19  1  0.45886595  0.83835778  0.29674869  1
  O  O20  1  0.54254898  0.15878492  0.70552153  1
  O  O21  1  0.54254898  0.65878492  0.79447847  1
  O  O22  1  0.73903954  0.08194161  0.11449127  1
  O  O23  1  0.73903954  0.58194161  0.38550873  1
  O  O24  1  0.74758649  0.45135141  0.80192130  1
  O  O25  1  0.95552112  0.15648694  0.72108954  1
  P  P26  1  0.25621012  0.91149692  0.19674276  1
  P  P27  1  0.74584171  0.08647120  0.80674948  1
  P  P28  1  0.25621012  0.41149692  0.30325724  1
  P  P29  1  0.74584171  0.58647120  0.69325052  1
  Cu  Cu30  1  0.99249855  0.67273538  0.20127650  1
  Cu  Cu31  1  0.99249855  0.17273538  0.29872350  1
