# generated using pymatgen
data_H8PtO6
_symmetry_space_group_name_H-M   'P 1'
_cell_length_a   5.67878182
_cell_length_b   5.56104076
_cell_length_c   7.34468567
_cell_angle_alpha   85.14284696
_cell_angle_beta   90.77982336
_cell_angle_gamma   98.62049862
_symmetry_Int_Tables_number   1
_chemical_formula_structural   H8PtO6
_chemical_formula_sum   'H16 Pt2 O12'
_cell_volume   228.50076315
_cell_formula_units_Z   2
loop_
 _symmetry_equiv_pos_site_id
 _symmetry_equiv_pos_as_xyz
  1  'x, y, z'
loop_
 _atom_site_type_symbol
 _atom_site_label
 _atom_site_symmetry_multiplicity
 _atom_site_fract_x
 _atom_site_fract_y
 _atom_site_fract_z
 _atom_site_occupancy
  H  H0  1  0.11319965  0.61106288  0.84502811  1
  H  H1  1  0.83348480  0.47429169  0.84102886  1
  H  H2  1  0.61934905  0.13574471  0.64321436  1
  H  H3  1  0.74117464  0.89198502  0.74364373  1
  H  H4  1  0.08913118  0.24654321  0.25077017  1
  H  H5  1  0.17102061  0.53010419  0.15066914  1
  H  H6  1  0.52246862  0.15004005  0.33384936  1
  H  H7  1  0.37789901  0.86782345  0.35066083  1
  H  H8  1  0.43964302  0.53786814  0.00150657  1
  H  H9  1  0.54481119  0.43665830  0.51263377  1
  H  H10  1  0.76924387  0.37820902  0.08561677  1
  H  H11  1  0.39424960  0.75410304  0.59227307  1
  H  H12  1  0.05445530  0.02893433  0.98352321  1
  H  H13  1  0.15195788  0.16426623  0.71295977  1
  H  H14  1  0.82451741  0.85367912  0.21186269  1
  H  H15  1  0.97304437  0.94671622  0.48487205  1
  Pt  Pt16  1  0.00229693  0.49853014  0.50534483  1
  Pt  Pt17  1  0.49932650  -0.00002450  0.00492939  1
  O  O18  1  0.96479802  0.59392339  0.76428557  1
  O  O19  1  0.59013472  0.96160885  0.74142580  1
  O  O20  1  0.03541250  0.40892854  0.24214087  1
  O  O21  1  0.40409849  0.03765171  0.26518861  1
  O  O22  1  0.31738425  0.64905913  0.01642149  1
  O  O23  1  0.65945696  0.31489235  0.51241291  1
  O  O24  1  0.65856392  0.35336998  0.98135408  1
  O  O25  1  0.34481393  0.66471003  0.48390384  1
  O  O26  1  0.19810208  0.13416883  0.92390780  1
  O  O27  1  0.12402440  0.18059713  0.57544040  1
  O  O28  1  0.80876250  0.87726494  0.07402039  1
  O  O29  1  0.87040861  0.81010089  0.42610755  1
