# generated using pymatgen
data_CuSe3Br
_symmetry_space_group_name_H-M   'P 1'
_cell_length_a   4.98798061
_cell_length_b   7.58663837
_cell_length_c   14.47831713
_cell_angle_alpha   90.00000000
_cell_angle_beta   90.00000000
_cell_angle_gamma   90.00000000
_symmetry_Int_Tables_number   1
_chemical_formula_structural   CuSe3Br
_chemical_formula_sum   'Cu4 Se12 Br4'
_cell_volume   547.88855045
_cell_formula_units_Z   4
loop_
 _symmetry_equiv_pos_site_id
 _symmetry_equiv_pos_as_xyz
  1  'x, y, z'
loop_
 _atom_site_type_symbol
 _atom_site_label
 _atom_site_symmetry_multiplicity
 _atom_site_fract_x
 _atom_site_fract_y
 _atom_site_fract_z
 _atom_site_occupancy
  Cu  Cu0  1  0.79172792  0.75006508  0.75765444  1
  Cu  Cu1  1  0.20827208  0.24993492  0.75765444  1
  Cu  Cu2  1  0.20827208  0.25006508  0.25765444  1
  Cu  Cu3  1  0.79172792  0.74993492  0.25765444  1
  Se  Se4  1  0.07366743  0.65500055  0.13400534  1
  Se  Se5  1  0.92633257  0.15500055  0.63400534  1
  Se  Se6  1  0.07366743  0.84499945  0.63400534  1
  Se  Se7  1  0.81730439  0.73455737  0.50737185  1
  Se  Se8  1  0.18269561  0.23455737  0.00737185  1
  Se  Se9  1  0.81730439  0.76544263  0.00737185  1
  Se  Se10  1  0.92555320  0.15494159  0.38105167  1
  Se  Se11  1  0.18269561  0.26544263  0.50737185  1
  Se  Se12  1  0.92555320  0.34505841  0.88105167  1
  Se  Se13  1  0.07444680  0.84505841  0.38105167  1
  Se  Se14  1  0.07444680  0.65494159  0.88105167  1
  Se  Se15  1  0.92633257  0.34499945  0.13400534  1
  Br  Br16  1  0.50000000  0.00000000  0.19916293  1
  Br  Br17  1  0.50000000  0.50000000  0.31617045  1
  Br  Br18  1  0.50000000  0.00000000  0.81617045  1
  Br  Br19  1  0.50000000  0.50000000  0.69916293  1
