# generated using pymatgen
data_H8PtO6
_symmetry_space_group_name_H-M   'P 1'
_cell_length_a   5.57829454
_cell_length_b   5.57288148
_cell_length_c   7.33712806
_cell_angle_alpha   87.11439169
_cell_angle_beta   92.03166010
_cell_angle_gamma   97.03887055
_symmetry_Int_Tables_number   1
_chemical_formula_structural   H8PtO6
_chemical_formula_sum   'H16 Pt2 O12'
_cell_volume   225.98580457
_cell_formula_units_Z   2
loop_
 _symmetry_equiv_pos_site_id
 _symmetry_equiv_pos_as_xyz
  1  'x, y, z'
loop_
 _atom_site_type_symbol
 _atom_site_label
 _atom_site_symmetry_multiplicity
 _atom_site_fract_x
 _atom_site_fract_y
 _atom_site_fract_z
 _atom_site_occupancy
  H  H0  1  0.07377499  0.60081792  0.82591089  1
  H  H1  1  0.63145226  0.10803008  0.64804975  1
  H  H2  1  0.75355948  0.86515936  0.74405172  1
  H  H3  1  0.87116466  0.37290692  0.14536579  1
  H  H4  1  0.14827801  0.52216365  0.15254907  1
  H  H5  1  0.24990107  0.12716527  0.24443563  1
  H  H6  1  0.52160213  0.15923431  0.33851169  1
  H  H7  1  0.45592536  0.54862297  0.00630461  1
  H  H8  1  0.53888100  0.42416219  0.51060287  1
  H  H9  1  0.75734161  0.41046287  0.90151444  1
  H  H10  1  0.39233281  0.75465938  0.62039123  1
  H  H11  1  0.36247037  0.79041706  0.40668309  1
  H  H12  1  0.17060510  0.14562726  0.79739795  1
  H  H13  1  0.02263552  0.04400133  0.51890730  1
  H  H14  1  0.95739841  0.97195010  0.02034555  1
  H  H15  1  0.84459485  0.82721840  0.28641409  1
  Pt  Pt16  1  0.98450674  0.49175327  0.49655865  1
  Pt  Pt17  1  0.50812898  0.00205909  0.00006837  1
  O  O18  1  0.92035543  0.58320516  0.75022835  1
  O  O19  1  0.60567103  0.95459686  0.73934296  1
  O  O20  1  0.03575451  0.39983473  0.23077858  1
  O  O21  1  0.39961209  0.04368424  0.25942908  1
  O  O22  1  0.32947702  0.66094513  0.00069704  1
  O  O23  1  0.65136026  0.30323524  0.49199358  1
  O  O24  1  0.67505858  0.34584034  0.01702207  1
  O  O25  1  0.33599795  0.66406579  0.50862532  1
  O  O26  1  0.19146530  0.12998570  0.93424743  1
  O  O27  1  0.12761746  0.18314793  0.57701623  1
  O  O28  1  0.81668692  0.86340800  0.07755005  1
  O  O29  1  0.85588008  0.80922245  0.42610761  1
