# generated using pymatgen
data_Li3VBO5
_symmetry_space_group_name_H-M   'P 1'
_cell_length_a   4.74924468
_cell_length_b   4.90922197
_cell_length_c   16.25552637
_cell_angle_alpha   90.00000000
_cell_angle_beta   90.00000000
_cell_angle_gamma   90.00000000
_symmetry_Int_Tables_number   1
_chemical_formula_structural   Li3VBO5
_chemical_formula_sum   'Li12 V4 B4 O20'
_cell_volume   378.99916311
_cell_formula_units_Z   4
loop_
 _symmetry_equiv_pos_site_id
 _symmetry_equiv_pos_as_xyz
  1  'x, y, z'
loop_
 _atom_site_type_symbol
 _atom_site_label
 _atom_site_symmetry_multiplicity
 _atom_site_fract_x
 _atom_site_fract_y
 _atom_site_fract_z
 _atom_site_occupancy
  Li  Li0  1  0.01144978  0.70317368  0.61408727  1
  Li  Li1  1  0.01144978  0.20317368  0.88591273  1
  Li  Li2  1  0.50895731  0.32255854  0.00657793  1
  Li  Li3  1  0.50895731  0.82255854  0.49342207  1
  Li  Li4  1  0.49781939  0.34979008  0.79064855  1
  Li  Li5  1  0.49781939  0.84979008  0.70935145  1
  Li  Li6  1  0.51144978  0.29682632  0.38591273  1
  Li  Li7  1  0.51144978  0.79682632  0.11408727  1
  Li  Li8  1  0.00895731  0.67744146  0.99342207  1
  Li  Li9  1  0.00895731  0.17744146  0.50657793  1
  Li  Li10  1  0.99781939  0.15020992  0.29064855  1
  Li  Li11  1  0.99781939  0.65020992  0.20935145  1
  V  V12  1  0.01466608  0.16379378  0.10183697  1
  V  V13  1  0.01466608  0.66379378  0.39816303  1
  V  V14  1  0.51466608  0.33620622  0.60183697  1
  V  V15  1  0.51466608  0.83620622  0.89816303  1
  B  B16  1  0.99533593  0.19011317  0.70763639  1
  B  B17  1  0.99533593  0.69011317  0.79236361  1
  B  B18  1  0.49533593  0.30988683  0.20763639  1
  B  B19  1  0.49533593  0.80988683  0.29236361  1
  O  O20  1  0.08998542  0.39317660  0.77414560  1
  O  O21  1  0.08998542  0.89317660  0.72585440  1
  O  O22  1  0.07984171  0.31599541  0.39333712  1
  O  O23  1  0.07984171  0.81599541  0.10666288  1
  O  O24  1  0.08743026  0.29847772  0.00395049  1
  O  O25  1  0.08743026  0.79847772  0.49604951  1
  O  O26  1  0.18682000  0.30852349  0.19840244  1
  O  O27  1  0.18682000  0.80852349  0.30159756  1
  O  O28  1  0.12269311  0.27679425  0.62690483  1
  O  O29  1  0.12269311  0.77679425  0.87309517  1
  O  O30  1  0.58998542  0.60682340  0.22585440  1
  O  O31  1  0.58998542  0.10682340  0.27414560  1
  O  O32  1  0.57984171  0.68400459  0.60666288  1
  O  O33  1  0.57984171  0.18400459  0.89333712  1
  O  O34  1  0.58743026  0.20152228  0.50395049  1
  O  O35  1  0.58743026  0.70152228  0.99604951  1
  O  O36  1  0.68682000  0.19147651  0.69840244  1
  O  O37  1  0.68682000  0.69147651  0.80159756  1
  O  O38  1  0.62269311  0.22320575  0.12690483  1
  O  O39  1  0.62269311  0.72320575  0.37309517  1
