# generated using pymatgen
data_BaLi2SiO4
_symmetry_space_group_name_H-M   'P 1'
_cell_length_a   8.20276791
_cell_length_b   8.20276774
_cell_length_c   10.78100694
_cell_angle_alpha   90.00000000
_cell_angle_beta   90.00000000
_cell_angle_gamma   120.00000064
_symmetry_Int_Tables_number   1
_chemical_formula_structural   BaLi2SiO4
_chemical_formula_sum   'Ba6 Li12 Si6 O24'
_cell_volume   628.21860356
_cell_formula_units_Z   6
loop_
 _symmetry_equiv_pos_site_id
 _symmetry_equiv_pos_as_xyz
  1  'x, y, z'
loop_
 _atom_site_type_symbol
 _atom_site_label
 _atom_site_symmetry_multiplicity
 _atom_site_fract_x
 _atom_site_fract_y
 _atom_site_fract_z
 _atom_site_occupancy
  Ba  Ba0  1  0.43090944  0.00000000  0.72610016  1
  Ba  Ba1  1  0.56909056  0.00000000  0.22610016  1
  Ba  Ba2  1  0.43090944  0.43090944  0.22610016  1
  Ba  Ba3  1  1.00000000  0.56909056  0.22610016  1
  Ba  Ba4  1  0.00000000  0.43090944  0.72610016  1
  Ba  Ba5  1  0.56909056  0.56909056  0.72610016  1
  Li  Li6  1  0.22444234  0.00000000  0.07941549  1
  Li  Li7  1  0.73302543  0.00000000  0.94081851  1
  Li  Li8  1  0.00000000  0.22444234  0.07941549  1
  Li  Li9  1  1.00000000  0.73302543  0.94081851  1
  Li  Li10  1  0.77555766  0.00000000  0.57941549  1
  Li  Li11  1  0.73302543  0.73302543  0.44081851  1
  Li  Li12  1  1.00000000  0.77555766  0.57941549  1
  Li  Li13  1  0.22444234  0.22444234  0.57941549  1
  Li  Li14  1  0.00000000  0.26697457  0.44081851  1
  Li  Li15  1  0.26697457  0.00000000  0.44081851  1
  Li  Li16  1  0.26697457  0.26697457  0.94081851  1
  Li  Li17  1  0.77555766  0.77555766  0.07941549  1
  Si  Si18  1  0.66666700  0.33333300  0.98230485  1
  Si  Si19  1  0.33333300  0.66666700  0.98230485  1
  Si  Si20  1  0.00000000  0.00000000  0.31166432  1
  Si  Si21  1  0.66666700  0.33333300  0.48230485  1
  Si  Si22  1  0.00000000  0.00000000  0.81166432  1
  Si  Si23  1  0.33333300  0.66666700  0.48230485  1
  O  O24  1  0.19218272  0.00000000  0.26510734  1
  O  O25  1  0.33333300  0.66666700  0.32952764  1
  O  O26  1  0.19218272  0.19218272  0.76510734  1
  O  O27  1  0.80781728  0.00000000  0.76510734  1
  O  O28  1  0.77488191  0.22189110  0.03352289  1
  O  O29  1  0.22189110  0.44700919  0.53352289  1
  O  O30  1  0.44700919  0.22189110  0.53352289  1
  O  O31  1  0.66666700  0.33333300  0.82952764  1
  O  O32  1  0.00000000  0.00000000  0.96909880  1
  O  O33  1  0.77488191  0.55299081  0.53352289  1
  O  O34  1  0.22511809  0.77810890  0.53352289  1
  O  O35  1  0.44700919  0.22511809  0.03352289  1
  O  O36  1  0.77810890  0.55299081  0.03352289  1
  O  O37  1  0.00000000  0.80781728  0.76510734  1
  O  O38  1  0.22189110  0.77488191  0.03352289  1
  O  O39  1  0.22511809  0.44700919  0.03352289  1
  O  O40  1  1.00000000  0.19218272  0.26510734  1
  O  O41  1  0.55299081  0.77488191  0.53352289  1
  O  O42  1  0.80781728  0.80781728  0.26510734  1
  O  O43  1  0.00000000  0.00000000  0.46909880  1
  O  O44  1  0.77810890  0.22511809  0.53352289  1
  O  O45  1  0.33333300  0.66666700  0.82952764  1
  O  O46  1  0.66666700  0.33333300  0.32952764  1
  O  O47  1  0.55299081  0.77810890  0.03352289  1
