# generated using pymatgen
data_In2(CN2)3
_symmetry_space_group_name_H-M   'P 1'
_cell_length_a   10.33986991
_cell_length_b   6.19559767
_cell_length_c   29.10395489
_cell_angle_alpha   90.00185336
_cell_angle_beta   159.76052558
_cell_angle_gamma   72.56476220
_symmetry_Int_Tables_number   1
_chemical_formula_structural   In2(CN2)3
_chemical_formula_sum   'In4 C6 N12'
_cell_volume   322.49680016
_cell_formula_units_Z   2
loop_
 _symmetry_equiv_pos_site_id
 _symmetry_equiv_pos_as_xyz
  1  'x, y, z'
loop_
 _atom_site_type_symbol
 _atom_site_label
 _atom_site_symmetry_multiplicity
 _atom_site_fract_x
 _atom_site_fract_y
 _atom_site_fract_z
 _atom_site_occupancy
  In  In0  1  0.00001352  0.99999354  0.16335605  1
  In  In1  1  0.00001225  0.99998692  0.66335324  1
  In  In2  1  0.00000834  0.99999715  0.83666938  1
  In  In3  1  0.99999609  0.00000953  0.33666636  1
  C  C4  1  0.90294649  0.69901350  0.05099289  1
  C  C5  1  -0.00001415  0.69902562  0.75000848  1
  C  C6  1  0.09706810  0.60195504  0.44903259  1
  C  C7  1  0.90302817  0.39800181  0.55101732  1
  C  C8  1  0.09698992  0.30099038  0.94900556  1
  C  C9  1  -0.00004938  0.30102096  0.24998853  1
  N  N10  1  0.79339467  0.79876077  0.05510657  1
  N  N11  1  0.18965432  0.60907960  0.85386085  1
  N  N12  1  0.01690216  0.59217248  0.46294264  1
  N  N13  1  0.79349389  0.40779606  0.55514028  1
  N  N14  1  0.01691414  0.39091689  0.96294762  1
  N  N15  1  0.18967705  0.20125588  0.35386670  1
  N  N16  1  0.20655854  0.20124923  0.94489629  1
  N  N17  1  0.81033888  0.39094000  0.14615542  1
  N  N18  1  0.98314377  0.40780142  0.53709055  1
  N  N19  1  0.20651995  0.59220379  0.44488218  1
  N  N20  1  0.98311842  0.60906155  0.03708210  1
  N  N21  1  0.81028488  0.79876888  0.64613840  1
