# generated using pymatgen
data_Zn(HO)2
_symmetry_space_group_name_H-M   'P 1'
_cell_length_a   4.96287017
_cell_length_b   5.26895857
_cell_length_c   8.26997420
_cell_angle_alpha   90.00000000
_cell_angle_beta   90.00000000
_cell_angle_gamma   90.00000000
_symmetry_Int_Tables_number   1
_chemical_formula_structural   Zn(HO)2
_chemical_formula_sum   'Zn4 H8 O8'
_cell_volume   216.25285634
_cell_formula_units_Z   4
loop_
 _symmetry_equiv_pos_site_id
 _symmetry_equiv_pos_as_xyz
  1  'x, y, z'
loop_
 _atom_site_type_symbol
 _atom_site_label
 _atom_site_symmetry_multiplicity
 _atom_site_fract_x
 _atom_site_fract_y
 _atom_site_fract_z
 _atom_site_occupancy
  Zn  Zn0  1  0.94759406  0.19029323  0.86937049  1
  Zn  Zn1  1  0.55240594  0.80970677  0.36937049  1
  Zn  Zn2  1  0.44759406  0.30970677  0.13062951  1
  Zn  Zn3  1  0.05240594  0.69029323  0.63062951  1
  H  H4  1  0.63185658  0.90927968  0.70949374  1
  H  H5  1  0.86814342  0.09072032  0.20949374  1
  H  H6  1  0.13185658  0.59072032  0.29050626  1
  H  H7  1  0.36814342  0.40927968  0.79050626  1
  H  H8  1  0.80823142  0.40310860  0.41411208  1
  H  H9  1  0.69176858  0.59689140  0.91411208  1
  H  H10  1  0.30823142  0.09689140  0.58588792  1
  H  H11  1  0.19176858  0.90310860  0.08588792  1
  O  O12  1  0.85920174  0.58276766  0.42870253  1
  O  O13  1  0.64079826  0.41723234  0.92870253  1
  O  O14  1  0.35920174  0.91723234  0.57129747  1
  O  O15  1  0.14079826  0.08276766  0.07129747  1
  O  O16  1  0.79916524  0.87884119  0.77363395  1
  O  O17  1  0.70083476  0.12115881  0.27363395  1
  O  O18  1  0.29916524  0.62115881  0.22636605  1
  O  O19  1  0.20083476  0.37884119  0.72636605  1
