# generated using pymatgen
data_CaTiN2
_symmetry_space_group_name_H-M   'P 1'
_cell_length_a   4.99694041
_cell_length_b   10.06523098
_cell_length_c   17.15265849
_cell_angle_alpha   90.00000000
_cell_angle_beta   90.00000000
_cell_angle_gamma   90.00000000
_symmetry_Int_Tables_number   1
_chemical_formula_structural   CaTiN2
_chemical_formula_sum   'Ca16 Ti16 N32'
_cell_volume   862.69912376
_cell_formula_units_Z   16
loop_
 _symmetry_equiv_pos_site_id
 _symmetry_equiv_pos_as_xyz
  1  'x, y, z'
loop_
 _atom_site_type_symbol
 _atom_site_label
 _atom_site_symmetry_multiplicity
 _atom_site_fract_x
 _atom_site_fract_y
 _atom_site_fract_z
 _atom_site_occupancy
  Ca  Ca0  1  0.74075290  0.99662531  0.43741578  1
  Ca  Ca1  1  0.24075290  0.50337469  0.56258422  1
  Ca  Ca2  1  0.25924710  0.49662531  0.06258422  1
  Ca  Ca3  1  0.75924710  0.00337469  0.93741578  1
  Ca  Ca4  1  0.25924710  0.00337469  0.56258422  1
  Ca  Ca5  1  0.75924710  0.49662531  0.43741578  1
  Ca  Ca6  1  0.74075290  0.50337469  0.93741578  1
  Ca  Ca7  1  0.24075290  0.99662531  0.06258422  1
  Ca  Ca8  1  0.75165504  0.25263188  0.31256912  1
  Ca  Ca9  1  0.25165504  0.24736812  0.68743088  1
  Ca  Ca10  1  0.24834496  0.75263188  0.18743088  1
  Ca  Ca11  1  0.74834496  0.74736812  0.81256912  1
  Ca  Ca12  1  0.24834496  0.74736812  0.68743088  1
  Ca  Ca13  1  0.74834496  0.75263188  0.31256912  1
  Ca  Ca14  1  0.75165504  0.24736812  0.81256912  1
  Ca  Ca15  1  0.25165504  0.25263188  0.18743088  1
  Ti  Ti16  1  0.70143666  0.02272750  0.18741911  1
  Ti  Ti17  1  0.20143666  0.47727250  0.81258089  1
  Ti  Ti18  1  0.29856334  0.52272750  0.31258089  1
  Ti  Ti19  1  0.79856334  0.97727250  0.68741911  1
  Ti  Ti20  1  0.29856334  0.97727250  0.81258089  1
  Ti  Ti21  1  0.79856334  0.52272750  0.18741911  1
  Ti  Ti22  1  0.70143666  0.47727250  0.68741911  1
  Ti  Ti23  1  0.20143666  0.02272750  0.31258089  1
  Ti  Ti24  1  0.78927231  0.27274839  0.06213043  1
  Ti  Ti25  1  0.28927231  0.22725161  0.93786957  1
  Ti  Ti26  1  0.21072769  0.77274839  0.43786957  1
  Ti  Ti27  1  0.71072769  0.72725161  0.56213043  1
  Ti  Ti28  1  0.21072769  0.72725161  0.93786957  1
  Ti  Ti29  1  0.71072769  0.77274839  0.06213043  1
  Ti  Ti30  1  0.78927231  0.22725161  0.56213043  1
  Ti  Ti31  1  0.28927231  0.27274839  0.43786957  1
  N  N32  1  0.67489883  0.49887145  0.29825854  1
  N  N33  1  0.17489883  0.00112855  0.70174146  1
  N  N34  1  0.32510117  0.99887145  0.20174146  1
  N  N35  1  0.82510117  0.50112855  0.79825854  1
  N  N36  1  0.32510117  0.50112855  0.70174146  1
  N  N37  1  0.82510117  0.99887145  0.29825854  1
  N  N38  1  0.67489883  0.00112855  0.79825854  1
  N  N39  1  0.17489883  0.49887145  0.20174146  1
  N  N40  1  0.66829780  0.25588185  0.45191188  1
  N  N41  1  0.16829780  0.24411815  0.54808812  1
  N  N42  1  0.33170220  0.75588185  0.04808812  1
  N  N43  1  0.83170220  0.74411815  0.95191188  1
  N  N44  1  0.33170220  0.74411815  0.54808812  1
  N  N45  1  0.83170220  0.75588185  0.45191188  1
  N  N46  1  0.66829780  0.24411815  0.95191188  1
  N  N47  1  0.16829780  0.25588185  0.04808812  1
  N  N48  1  0.74625925  0.45970613  0.07691048  1
  N  N49  1  0.24625925  0.04029387  0.92308952  1
  N  N50  1  0.25374075  0.95970613  0.42308952  1
  N  N51  1  0.75374075  0.54029387  0.57691048  1
  N  N52  1  0.25374075  0.54029387  0.92308952  1
  N  N53  1  0.75374075  0.95970613  0.07691048  1
  N  N54  1  0.74625925  0.04029387  0.57691048  1
  N  N55  1  0.24625925  0.45970613  0.42308952  1
  N  N56  1  0.73341601  0.21000564  0.17261197  1
  N  N57  1  0.23341601  0.28999436  0.82738803  1
  N  N58  1  0.26658399  0.71000564  0.32738803  1
  N  N59  1  0.76658399  0.78999436  0.67261197  1
  N  N60  1  0.26658399  0.78999436  0.82738803  1
  N  N61  1  0.76658399  0.71000564  0.17261197  1
  N  N62  1  0.73341601  0.28999436  0.67261197  1
  N  N63  1  0.23341601  0.21000564  0.32738803  1
