# generated using pymatgen
data_KNd(PO3)4
_symmetry_space_group_name_H-M   'P 1'
_cell_length_a   7.41405035
_cell_length_b   8.10889664
_cell_length_c   8.59038105
_cell_angle_alpha   90.00000000
_cell_angle_beta   90.00000000
_cell_angle_gamma   91.74908861
_symmetry_Int_Tables_number   1
_chemical_formula_structural   KNd(PO3)4
_chemical_formula_sum   'K2 Nd2 P8 O24'
_cell_volume   516.21108873
_cell_formula_units_Z   2
loop_
 _symmetry_equiv_pos_site_id
 _symmetry_equiv_pos_as_xyz
  1  'x, y, z'
loop_
 _atom_site_type_symbol
 _atom_site_label
 _atom_site_symmetry_multiplicity
 _atom_site_fract_x
 _atom_site_fract_y
 _atom_site_fract_z
 _atom_site_occupancy
  O  O0  1  0.39268927  0.43205405  0.43917052  1
  O  O1  1  0.60731073  0.56794595  0.93917052  1
  O  O2  1  0.97032278  0.06770053  0.20418342  1
  O  O3  1  0.02967722  0.93229947  0.70418342  1
  O  O4  1  0.53293480  0.35096660  0.15254691  1
  O  O5  1  0.46706520  0.64903340  0.65254691  1
  O  O6  1  0.45980096  0.72866577  0.36511525  1
  O  O7  1  0.54019904  0.27133423  0.86511525  1
  O  O8  1  0.17477775  0.65821757  0.50914094  1
  O  O9  1  0.82522225  0.34178243  0.00914094  1
  O  O10  1  0.03116002  0.46664937  0.30341642  1
  O  O11  1  0.96883998  0.53335063  0.80341642  1
  O  O12  1  0.91166978  0.82465478  0.01192809  1
  O  O13  1  0.08833022  0.17534522  0.51192809  1
  O  O14  1  0.30922014  0.12157998  0.72214744  1
  O  O15  1  0.69077986  0.87842002  0.22214744  1
  O  O16  1  0.99098855  0.22096042  0.79113528  1
  O  O17  1  0.00901145  0.77903958  0.29113528  1
  O  O18  1  0.16183464  0.38506215  0.00255604  1
  O  O19  1  0.83816536  0.61493785  0.50255604  1
  O  O20  1  0.31794276  0.07373340  0.01779857  1
  O  O21  1  0.68205724  0.92626660  0.51779857  1
  O  O22  1  0.56038714  0.96017127  0.84267165  1
  O  O23  1  0.43961286  0.03982873  0.34267165  1
  P  P24  1  0.00228010  0.61807615  0.39999967  1
  P  P25  1  0.99771990  0.38192385  0.89999967  1
  P  P26  1  0.61769137  0.39499326  0.99921907  1
  P  P27  1  0.38230863  0.60500674  0.49921907  1
  P  P28  1  0.43211296  0.09585500  0.87486497  1
  P  P29  1  0.56788704  0.90414500  0.37486497  1
  P  P30  1  0.10028043  0.10472737  0.67247942  1
  P  P31  1  0.89971957  0.89527263  0.17247942  1
  K  K32  1  0.73136928  0.28253292  0.43636817  1
  K  K33  1  0.26863072  0.71746708  0.93636817  1
  Nd  Nd34  1  0.23675775  0.24175672  0.25035817  1
  Nd  Nd35  1  0.76324225  0.75824328  0.75035817  1
