# generated using pymatgen
data_LiSbS
_symmetry_space_group_name_H-M   'P 1'
_cell_length_a   6.33196998
_cell_length_b   7.17357055
_cell_length_c   8.56391624
_cell_angle_alpha   148.03440703
_cell_angle_beta   112.78937368
_cell_angle_gamma   89.33411800
_symmetry_Int_Tables_number   1
_chemical_formula_structural   LiSbS
_chemical_formula_sum   'Li2 Sb2 S2'
_cell_volume   144.37088500
_cell_formula_units_Z   2
loop_
 _symmetry_equiv_pos_site_id
 _symmetry_equiv_pos_as_xyz
  1  'x, y, z'
loop_
 _atom_site_type_symbol
 _atom_site_label
 _atom_site_symmetry_multiplicity
 _atom_site_fract_x
 _atom_site_fract_y
 _atom_site_fract_z
 _atom_site_occupancy
  Li  Li0  1  0.10238799  0.67284290  0.68833186  1
  Li  Li1  1  0.60145748  0.67606470  0.68472392  1
  Sb  Sb2  1  0.07423965  0.59905943  0.10120415  1
  Sb  Sb3  1  0.57981123  0.65102105  0.17101577  1
  S  S4  1  0.60076526  0.32312948  0.18630603  1
  S  S5  1  0.09893640  0.01709344  0.17722027  1
