# generated using pymatgen
data_LiSnPO4
_symmetry_space_group_name_H-M   'P 1'
_cell_length_a   5.62216303
_cell_length_b   5.37542362
_cell_length_c   14.19081836
_cell_angle_alpha   90.00000000
_cell_angle_beta   90.00000000
_cell_angle_gamma   90.00000000
_symmetry_Int_Tables_number   1
_chemical_formula_structural   LiSnPO4
_chemical_formula_sum   'Li4 Sn4 P4 O16'
_cell_volume   428.86792984
_cell_formula_units_Z   4
loop_
 _symmetry_equiv_pos_site_id
 _symmetry_equiv_pos_as_xyz
  1  'x, y, z'
loop_
 _atom_site_type_symbol
 _atom_site_label
 _atom_site_symmetry_multiplicity
 _atom_site_fract_x
 _atom_site_fract_y
 _atom_site_fract_z
 _atom_site_occupancy
  Li  Li0  1  0.88808906  0.04860016  -0.00001066  1
  Li  Li1  1  0.61191094  0.95139984  0.49998934  1
  Li  Li2  1  0.38808906  0.45139984  0.00001066  1
  Li  Li3  1  0.11191094  0.54860016  0.50001066  1
  Sn  Sn4  1  0.22050691  0.54338603  0.77818920  1
  Sn  Sn5  1  0.27949309  0.45661397  0.27818920  1
  Sn  Sn6  1  0.72050691  0.95661397  0.22181080  1
  Sn  Sn7  1  0.77949309  0.04338603  0.72181080  1
  P  P8  1  0.08476021  0.00535792  0.37653051  1
  P  P9  1  0.41523979  0.99464208  0.87653051  1
  P  P10  1  0.58476021  0.49464208  0.62346949  1
  P  P11  1  0.91523979  0.50535792  0.12346949  1
  O  O12  1  0.17645264  0.44581443  0.10319229  1
  O  O13  1  0.32945862  0.73764774  0.91511118  1
  O  O14  1  0.24658059  0.20622522  0.90792754  1
  O  O15  1  0.10006796  0.04147127  0.26400457  1
  O  O16  1  0.39993204  0.95852873  0.76400457  1
  O  O17  1  0.25341941  0.79377478  0.40792754  1
  O  O18  1  0.17054138  0.26235226  0.41511118  1
  O  O19  1  0.32354736  0.55418557  0.60319229  1
  O  O20  1  0.67645264  0.05418557  0.89680771  1
  O  O21  1  0.82945862  0.76235226  0.08488882  1
  O  O22  1  0.74658059  0.29377478  0.09207246  1
  O  O23  1  0.60006796  0.45852873  0.73599543  1
  O  O24  1  0.89993204  0.54147127  0.23599543  1
  O  O25  1  0.75341941  0.70622522  0.59207246  1
  O  O26  1  0.67054138  0.23764774  0.58488882  1
  O  O27  1  0.82354736  0.94581443  0.39680771  1
