# generated using pymatgen
data_BaLaGaO4
_symmetry_space_group_name_H-M   'P 1'
_cell_length_a   5.96565224
_cell_length_b   7.32680489
_cell_length_c   10.08654203
_cell_angle_alpha   90.00000000
_cell_angle_beta   90.00000000
_cell_angle_gamma   90.00000000
_symmetry_Int_Tables_number   1
_chemical_formula_structural   BaLaGaO4
_chemical_formula_sum   'Ba4 La4 Ga4 O16'
_cell_volume   440.87438034
_cell_formula_units_Z   4
loop_
 _symmetry_equiv_pos_site_id
 _symmetry_equiv_pos_as_xyz
  1  'x, y, z'
loop_
 _atom_site_type_symbol
 _atom_site_label
 _atom_site_symmetry_multiplicity
 _atom_site_fract_x
 _atom_site_fract_y
 _atom_site_fract_z
 _atom_site_occupancy
  Ba  Ba0  1  0.76007229  0.66789285  0.32952551  1
  Ba  Ba1  1  0.26007229  0.33210715  0.17047449  1
  Ba  Ba2  1  0.73992771  0.16789285  0.67047449  1
  Ba  Ba3  1  0.23992771  0.83210715  0.82952551  1
  La  La4  1  0.76323494  0.50375265  0.95050784  1
  La  La5  1  0.26323494  0.49624735  0.54949216  1
  La  La6  1  0.73676506  0.00375265  0.04949216  1
  La  La7  1  0.23676506  0.99624735  0.45050784  1
  Ga  Ga8  1  0.73565094  0.71761548  0.66609814  1
  Ga  Ga9  1  0.23565094  0.28238452  0.83390186  1
  Ga  Ga10  1  0.76434906  0.21761548  0.33390186  1
  Ga  Ga11  1  0.26434906  0.78238452  0.16609814  1
  O  O12  1  0.74725028  0.84884345  0.82620044  1
  O  O13  1  0.24725028  0.15115655  0.67379956  1
  O  O14  1  0.75274972  0.34884345  0.17379956  1
  O  O15  1  0.25274972  0.65115655  0.32620044  1
  O  O16  1  0.50699372  0.80834928  0.55439055  1
  O  O17  1  0.00699372  0.19165072  0.94560945  1
  O  O18  1  0.99300628  0.30834928  0.44560945  1
  O  O19  1  0.49300628  0.69165072  0.05439055  1
  O  O20  1  0.60106755  0.49789683  0.71365449  1
  O  O21  1  0.10106755  0.50210317  0.78634551  1
  O  O22  1  0.89893245  0.99789683  0.28634551  1
  O  O23  1  0.39893245  0.00210317  0.21365449  1
  O  O24  1  0.99754624  0.76168306  0.56979731  1
  O  O25  1  0.49754624  0.23831694  0.93020269  1
  O  O26  1  0.50245376  0.26168306  0.43020269  1
  O  O27  1  0.00245376  0.73831694  0.06979731  1
