# generated using pymatgen
data_Cu3SbS4
_symmetry_space_group_name_H-M   'P 1'
_cell_length_a   6.30423906
_cell_length_b   6.59319452
_cell_length_c   7.61357987
_cell_angle_alpha   90.00000000
_cell_angle_beta   90.00000000
_cell_angle_gamma   90.00000000
_symmetry_Int_Tables_number   1
_chemical_formula_structural   Cu3SbS4
_chemical_formula_sum   'Cu6 Sb2 S8'
_cell_volume   316.45901392
_cell_formula_units_Z   2
loop_
 _symmetry_equiv_pos_site_id
 _symmetry_equiv_pos_as_xyz
  1  'x, y, z'
loop_
 _atom_site_type_symbol
 _atom_site_label
 _atom_site_symmetry_multiplicity
 _atom_site_fract_x
 _atom_site_fract_y
 _atom_site_fract_z
 _atom_site_occupancy
  S  S0  1  0.37065544  0.65588206  0.23663020  1
  S  S1  1  0.87065544  0.34411794  0.26336980  1
  S  S2  1  0.87065544  0.34411794  0.73663020  1
  S  S3  1  0.37065544  0.65588206  0.76336980  1
  S  S4  1  0.37021374  0.18249917  0.50000000  1
  S  S5  1  0.87021374  0.81750083  0.00000000  1
  S  S6  1  0.39596085  0.16724506  0.00000000  1
  S  S7  1  0.89596085  0.83275494  0.50000000  1
  Cu  Cu8  1  0.50629014  0.33116680  0.75098387  1
  Cu  Cu9  1  0.00514745  0.16643733  0.50000000  1
  Cu  Cu10  1  0.00629014  0.66883320  0.25098387  1
  Cu  Cu11  1  0.50629014  0.33116680  0.24901613  1
  Cu  Cu12  1  0.00629014  0.66883320  0.74901613  1
  Cu  Cu13  1  0.50514745  0.83356267  0.00000000  1
  Sb  Sb14  1  0.00368681  0.16732164  0.00000000  1
  Sb  Sb15  1  0.50368681  0.83267836  0.50000000  1
