# generated using pymatgen
data_SrLi(BS2)3
_symmetry_space_group_name_H-M   'P 1'
_cell_length_a   8.07059025
_cell_length_b   8.73321637
_cell_length_c   8.73321619
_cell_angle_alpha   60.35372581
_cell_angle_beta   66.73283472
_cell_angle_gamma   66.73283478
_symmetry_Int_Tables_number   1
_chemical_formula_structural   SrLi(BS2)3
_chemical_formula_sum   'Sr2 Li2 B6 S12'
_cell_volume   475.84416889
_cell_formula_units_Z   2
loop_
 _symmetry_equiv_pos_site_id
 _symmetry_equiv_pos_as_xyz
  1  'x, y, z'
loop_
 _atom_site_type_symbol
 _atom_site_label
 _atom_site_symmetry_multiplicity
 _atom_site_fract_x
 _atom_site_fract_y
 _atom_site_fract_z
 _atom_site_occupancy
  Sr  Sr0  1  0.97466177  0.14014594  0.37878521  1
  Sr  Sr1  1  0.47466177  0.37878521  0.14014594  1
  Li  Li2  1  0.93761827  0.49022667  0.70595958  1
  Li  Li3  1  0.43761827  0.70595958  0.49022667  1
  B  B4  1  0.93905429  0.01234564  0.02945149  1
  B  B5  1  0.04328643  0.76046644  0.83868129  1
  B  B6  1  0.54328643  0.83868129  0.76046644  1
  B  B7  1  0.02740349  0.60437460  0.24476407  1
  B  B8  1  0.43905429  0.02945149  0.01234564  1
  B  B9  1  0.52740349  0.24476407  0.60437460  1
  S  S10  1  0.59080356  0.43671406  0.40499967  1
  S  S11  1  0.98804163  0.99260080  0.81664994  1
  S  S12  1  0.57909196  0.63672306  0.73552900  1
  S  S13  1  0.07159867  0.55641294  0.04846367  1
  S  S14  1  0.39539829  0.02210671  0.23392944  1
  S  S15  1  0.57159867  0.04846367  0.55641294  1
  S  S16  1  0.09080356  0.40499967  0.43671406  1
  S  S17  1  0.07909196  0.73552900  0.63672306  1
  S  S18  1  0.93453164  0.82691183  0.25389798  1
  S  S19  1  0.43453164  0.25389798  0.82691183  1
  S  S20  1  0.48804163  0.81664994  0.99260080  1
  S  S21  1  0.89539829  0.23392944  0.02210671  1
