# generated using pymatgen
data_TaTl3S4
_symmetry_space_group_name_H-M   'P 1'
_cell_length_a   6.79066274
_cell_length_b   6.79066274
_cell_length_c   6.79066274
_cell_angle_alpha   109.47122065
_cell_angle_beta   109.47122066
_cell_angle_gamma   109.47122064
_symmetry_Int_Tables_number   1
_chemical_formula_structural   TaTl3S4
_chemical_formula_sum   'Ta1 Tl3 S4'
_cell_volume   241.05413977
_cell_formula_units_Z   1
loop_
 _symmetry_equiv_pos_site_id
 _symmetry_equiv_pos_as_xyz
  1  'x, y, z'
loop_
 _atom_site_type_symbol
 _atom_site_label
 _atom_site_symmetry_multiplicity
 _atom_site_fract_x
 _atom_site_fract_y
 _atom_site_fract_z
 _atom_site_occupancy
  S  S0  1  0.00000000  0.00000000  0.66262828  1
  S  S1  1  0.00000000  0.66262828  0.00000000  1
  S  S2  1  0.66262828  0.00000000  0.00000000  1
  S  S3  1  0.33737172  0.33737172  0.33737172  1
  Ta  Ta4  1  0.00000000  0.00000000  0.00000000  1
  Tl  Tl5  1  0.50000000  0.00000000  0.50000000  1
  Tl  Tl6  1  0.50000000  0.50000000  0.00000000  1
  Tl  Tl7  1  0.00000000  0.50000000  0.50000000  1
