# generated using pymatgen
data_PNO
_symmetry_space_group_name_H-M   'P 1'
_cell_length_a   4.68418980
_cell_length_b   7.18556709
_cell_length_c   7.39006001
_cell_angle_alpha   105.30101668
_cell_angle_beta   71.52293545
_cell_angle_gamma   109.02279717
_symmetry_Int_Tables_number   1
_chemical_formula_structural   PNO
_chemical_formula_sum   'P6 N6 O6'
_cell_volume   219.42658324
_cell_formula_units_Z   6
loop_
 _symmetry_equiv_pos_site_id
 _symmetry_equiv_pos_as_xyz
  1  'x, y, z'
loop_
 _atom_site_type_symbol
 _atom_site_label
 _atom_site_symmetry_multiplicity
 _atom_site_fract_x
 _atom_site_fract_y
 _atom_site_fract_z
 _atom_site_occupancy
  P  P0  1  0.98972298  0.24139864  0.25063299  1
  P  P1  1  0.60684022  0.83660397  0.14967996  1
  P  P2  1  0.08008479  0.33660397  0.64967996  1
  P  P3  1  0.92646532  0.67433026  0.35076675  1
  P  P4  1  0.39709819  0.17433026  0.85076675  1
  P  P5  1  0.00104367  0.74139864  0.75063299  1
  N  N6  1  0.69139291  0.06580638  0.22161836  1
  N  N7  1  0.27696839  0.26493985  0.06386558  1
  N  N8  1  0.09068934  0.24330601  0.43467396  1
  N  N9  1  0.15279511  0.56580638  0.72161836  1
  N  N10  1  0.92410488  0.76493985  0.56386558  1
  N  N11  1  0.71794272  0.74330601  0.93467396  1
  O  O12  1  0.86131103  0.44119666  0.28750769  1
  O  O13  1  0.22936192  0.76504441  0.19531602  1
  O  O14  1  0.34036647  0.26504441  0.69531602  1
  O  O15  1  0.65641922  0.71737281  0.29593869  1
  O  O16  1  0.76501591  0.21737281  0.79593869  1
  O  O17  1  0.29237794  0.94119666  0.78750769  1
