# generated using pymatgen
data_H7BrO3
_symmetry_space_group_name_H-M   'P 1'
_cell_length_a   6.30582218
_cell_length_b   6.66757539
_cell_length_c   6.66757539
_cell_angle_alpha   53.36542218
_cell_angle_beta   87.06022508
_cell_angle_gamma   87.06022508
_symmetry_Int_Tables_number   1
_chemical_formula_structural   H7BrO3
_chemical_formula_sum   'H14 Br2 O6'
_cell_volume   224.58618352
_cell_formula_units_Z   2
loop_
 _symmetry_equiv_pos_site_id
 _symmetry_equiv_pos_as_xyz
  1  'x, y, z'
loop_
 _atom_site_type_symbol
 _atom_site_label
 _atom_site_symmetry_multiplicity
 _atom_site_fract_x
 _atom_site_fract_y
 _atom_site_fract_z
 _atom_site_occupancy
  H  H0  1  0.47469989  0.76199362  0.03905895  1
  H  H1  1  0.51402048  0.02753909  0.78308009  1
  H  H2  1  0.97469989  0.53905895  0.26199362  1
  H  H3  1  0.01402048  0.28308009  0.52753909  1
  H  H4  1  0.72413634  0.70579276  0.81364478  1
  H  H5  1  0.82806051  0.48902370  0.79819527  1
  H  H6  1  0.26523809  0.73508549  0.56215958  1
  H  H7  1  0.04005634  0.73894587  0.71333498  1
  H  H8  1  0.28979010  0.83070742  0.73434307  1
  H  H9  1  0.76523809  0.06215958  0.23508549  1
  H  H10  1  0.54005634  0.21333498  0.23894587  1
  H  H11  1  0.78979010  0.23434307  0.33070742  1
  H  H12  1  0.32806051  0.29819527  0.98902370  1
  H  H13  1  0.22413634  0.31364478  0.20579276  1
  Br  Br14  1  0.46983505  0.49865603  0.51363060  1
  Br  Br15  1  0.96983505  0.01363060  0.99865603  1
  O  O16  1  0.48939756  0.85014590  0.85651962  1
  O  O17  1  0.98939756  0.35651962  0.35014590  1
  O  O18  1  0.85634132  0.60764906  0.83493133  1
  O  O19  1  0.18732933  0.83182359  0.61799319  1
  O  O20  1  0.68732933  0.11799319  0.33182359  1
  O  O21  1  0.35634132  0.33493133  0.10764906  1
