# generated using pymatgen
data_KCuPO4
_symmetry_space_group_name_H-M   'P 1'
_cell_length_a   5.06082368
_cell_length_b   8.34925487
_cell_length_c   9.81382061
_cell_angle_alpha   90.00000000
_cell_angle_beta   90.00000000
_cell_angle_gamma   92.22588175
_symmetry_Int_Tables_number   1
_chemical_formula_structural   KCuPO4
_chemical_formula_sum   'K4 Cu4 P4 O16'
_cell_volume   414.36134126
_cell_formula_units_Z   4
loop_
 _symmetry_equiv_pos_site_id
 _symmetry_equiv_pos_as_xyz
  1  'x, y, z'
loop_
 _atom_site_type_symbol
 _atom_site_label
 _atom_site_symmetry_multiplicity
 _atom_site_fract_x
 _atom_site_fract_y
 _atom_site_fract_z
 _atom_site_occupancy
  K  K0  1  0.27522677  0.74433223  0.22770946  1
  K  K1  1  0.72477323  0.25566777  0.72770946  1
  K  K2  1  0.28765679  0.23839174  0.37135003  1
  K  K3  1  0.71234321  0.76160826  0.87135003  1
  Cu  Cu4  1  0.73712757  0.42049728  0.09807568  1
  Cu  Cu5  1  0.26287243  0.57950272  0.59807568  1
  Cu  Cu6  1  0.13926098  0.09169389  0.99169763  1
  Cu  Cu7  1  0.86073902  0.90830611  0.49169763  1
  P  P8  1  0.75861500  0.54803298  0.41533682  1
  P  P9  1  0.77100305  0.05971860  0.18377480  1
  P  P10  1  0.24138500  0.45196702  0.91533682  1
  P  P11  1  0.22899695  0.94028140  0.68377480  1
  O  O12  1  0.34202000  0.54425494  0.78754805  1
  O  O13  1  0.93840831  0.47565306  0.93312137  1
  O  O14  1  0.39754245  0.52081185  0.04045520  1
  O  O15  1  0.07954090  0.06910774  0.60016640  1
  O  O16  1  0.29476520  0.27083520  0.89225036  1
  O  O17  1  0.06159169  0.52434694  0.43312137  1
  O  O18  1  0.83061299  0.05846213  0.33841561  1
  O  O19  1  0.60245755  0.47918815  0.54045520  1
  O  O20  1  0.92045910  0.93089226  0.10016640  1
  O  O21  1  0.70523480  0.72916480  0.39225036  1
  O  O22  1  0.52416584  0.94424865  0.65500841  1
  O  O23  1  0.47583416  0.05575135  0.15500841  1
  O  O24  1  0.16938701  0.94153787  0.83841561  1
  O  O25  1  0.92409870  0.21849949  0.12355017  1
  O  O26  1  0.07590130  0.78150051  0.62355017  1
  O  O27  1  0.65798000  0.45574506  0.28754805  1
