# generated using pymatgen
data_H2SO4
_symmetry_space_group_name_H-M   'P 1'
_cell_length_a   4.81422288
_cell_length_b   4.81422288
_cell_length_c   9.59539561
_cell_angle_alpha   68.28355560
_cell_angle_beta   111.71644440
_cell_angle_gamma   117.24013662
_symmetry_Int_Tables_number   1
_chemical_formula_structural   H2SO4
_chemical_formula_sum   'H4 S2 O8'
_cell_volume   178.19044547
_cell_formula_units_Z   2
loop_
 _symmetry_equiv_pos_site_id
 _symmetry_equiv_pos_as_xyz
  1  'x, y, z'
loop_
 _atom_site_type_symbol
 _atom_site_label
 _atom_site_symmetry_multiplicity
 _atom_site_fract_x
 _atom_site_fract_y
 _atom_site_fract_z
 _atom_site_occupancy
  H  H0  1  0.46743154  0.21073523  0.14814252  1
  H  H1  1  0.21073523  0.46743154  0.35185748  1
  H  H2  1  0.37631833  0.88746012  0.83917804  1
  H  H3  1  0.88746012  0.37631833  0.66082196  1
  S  S4  1  0.88763676  0.88763676  0.75000000  1
  S  S5  1  0.07943132  0.07943132  0.25000000  1
  O  O6  1  0.66527133  0.81243687  0.83857184  1
  O  O7  1  0.81243687  0.66527133  0.66142816  1
  O  O8  1  0.27091633  0.26331856  0.12153099  1
  O  O9  1  0.26331856  0.27091633  0.37846901  1
  O  O10  1  0.21799103  0.92813734  0.86836126  1
  O  O11  1  0.92813734  0.21799103  0.63163874  1
  O  O12  1  0.76617681  0.09808343  0.17735974  1
  O  O13  1  0.09808343  0.76617681  0.32264026  1
