# generated using pymatgen
data_B3H5
_symmetry_space_group_name_H-M   'P 1'
_cell_length_a   6.12233800
_cell_length_b   6.12233800
_cell_length_c   8.89804173
_cell_angle_alpha   90.00000000
_cell_angle_beta   90.00000000
_cell_angle_gamma   101.86307131
_symmetry_Int_Tables_number   1
_chemical_formula_structural   B3H5
_chemical_formula_sum   'B12 H20'
_cell_volume   326.40195641
_cell_formula_units_Z   4
loop_
 _symmetry_equiv_pos_site_id
 _symmetry_equiv_pos_as_xyz
  1  'x, y, z'
loop_
 _atom_site_type_symbol
 _atom_site_label
 _atom_site_symmetry_multiplicity
 _atom_site_fract_x
 _atom_site_fract_y
 _atom_site_fract_z
 _atom_site_occupancy
  H  H0  1  0.10694120  0.24477218  0.31623490  1
  H  H1  1  0.89305880  0.75522782  0.81623490  1
  H  H2  1  0.75522782  0.89305880  0.31623490  1
  H  H3  1  0.24477218  0.10694120  0.81623490  1
  H  H4  1  0.89089185  0.35639515  0.43337240  1
  H  H5  1  0.10910815  0.64360485  0.93337240  1
  H  H6  1  0.64360485  0.10910815  0.43337240  1
  H  H7  1  0.35639515  0.89089185  0.93337240  1
  H  H8  1  0.58130148  0.41869852  0.40772142  1
  H  H9  1  0.41869852  0.58130148  0.90772142  1
  H  H10  1  0.07071460  0.58122287  0.29183128  1
  H  H11  1  0.92928540  0.41877713  0.79183128  1
  H  H12  1  0.31947704  0.68052296  0.57387262  1
  H  H13  1  0.68052296  0.31947704  0.07387262  1
  H  H14  1  0.23320106  0.18446927  0.59167715  1
  H  H15  1  0.76679894  0.81553073  0.09167715  1
  H  H16  1  0.81553073  0.76679894  0.59167715  1
  H  H17  1  0.18446927  0.23320106  0.09167715  1
  H  H18  1  0.58122287  0.07071460  0.79183128  1
  H  H19  1  0.41877713  0.92928540  0.29183128  1
  B  B20  1  0.69936931  0.30063069  0.36310362  1
  B  B21  1  0.30063069  0.69936931  0.86310362  1
  B  B22  1  0.97508491  0.39105390  0.28994637  1
  B  B23  1  0.02491509  0.60894610  0.78994637  1
  B  B24  1  0.60894610  0.02491509  0.28994637  1
  B  B25  1  0.39105390  0.97508491  0.78994637  1
  B  B26  1  0.03478083  0.17838700  0.17880800  1
  B  B27  1  0.96521917  0.82161300  0.67880800  1
  B  B28  1  0.82161300  0.96521917  0.17880800  1
  B  B29  1  0.17838700  0.03478083  0.67880800  1
  B  B30  1  0.75988512  0.24011488  0.17776213  1
  B  B31  1  0.24011488  0.75988512  0.67776213  1
