# generated using pymatgen
data_Li2CrSiO4
_symmetry_space_group_name_H-M   'P 1'
_cell_length_a   6.88698556
_cell_length_b   5.08107344
_cell_length_c   5.29282511
_cell_angle_alpha   90.00000000
_cell_angle_beta   88.52270495
_cell_angle_gamma   90.00000000
_symmetry_Int_Tables_number   1
_chemical_formula_structural   Li2CrSiO4
_chemical_formula_sum   'Li4 Cr2 Si2 O8'
_cell_volume   185.15174679
_cell_formula_units_Z   2
loop_
 _symmetry_equiv_pos_site_id
 _symmetry_equiv_pos_as_xyz
  1  'x, y, z'
loop_
 _atom_site_type_symbol
 _atom_site_label
 _atom_site_symmetry_multiplicity
 _atom_site_fract_x
 _atom_site_fract_y
 _atom_site_fract_z
 _atom_site_occupancy
  Li  Li0  1  0.00830530  0.83549005  0.51135106  1
  Li  Li1  1  0.25006865  0.31869587  0.39100944  1
  Li  Li2  1  0.50830530  0.16450995  0.01135106  1
  Li  Li3  1  0.75006865  0.68130413  0.89100944  1
  Cr  Cr4  1  0.99636857  0.18035311  0.99862859  1
  Cr  Cr5  1  0.49636857  0.81964689  0.49862859  1
  Si  Si6  1  0.25426358  0.67289218  0.01982213  1
  Si  Si7  1  0.75426358  0.32710782  0.51982213  1
  O  O8  1  0.05897332  0.78878959  0.88182479  1
  O  O9  1  0.26117742  0.34726111  0.00623013  1
  O  O10  1  0.24102808  0.74386854  0.32652657  1
  O  O11  1  0.45981509  0.78644654  0.89760730  1
  O  O12  1  0.55897332  0.21121041  0.38182479  1
  O  O13  1  0.76117742  0.65273889  0.50623013  1
  O  O14  1  0.74102808  0.25613146  0.82652657  1
  O  O15  1  0.95981509  0.21355346  0.39760730  1
