# generated using pymatgen
data_NaSi2BH2O7
_symmetry_space_group_name_H-M   'P 1'
_cell_length_a   8.45927879
_cell_length_b   7.07478628
_cell_length_c   5.29775298
_cell_angle_alpha   90.00000000
_cell_angle_beta   88.86240177
_cell_angle_gamma   90.00000000
_symmetry_Int_Tables_number   1
_chemical_formula_structural   NaSi2BH2O7
_chemical_formula_sum   'Na2 Si4 B2 H4 O14'
_cell_volume   316.99525360
_cell_formula_units_Z   2
loop_
 _symmetry_equiv_pos_site_id
 _symmetry_equiv_pos_as_xyz
  1  'x, y, z'
loop_
 _atom_site_type_symbol
 _atom_site_label
 _atom_site_symmetry_multiplicity
 _atom_site_fract_x
 _atom_site_fract_y
 _atom_site_fract_z
 _atom_site_occupancy
  Na  Na0  1  0.54695435  0.58039967  0.87821417  1
  Na  Na1  1  0.45304565  0.08039967  0.12178583  1
  Si  Si2  1  0.86742476  0.90097617  0.77733489  1
  Si  Si3  1  0.13257524  0.40097617  0.22266511  1
  Si  Si4  1  0.92929503  0.46923945  0.73032631  1
  Si  Si5  1  0.07070497  0.96923945  0.26967369  1
  B  B6  1  0.66117277  0.19513050  0.74787752  1
  B  B7  1  0.33882723  0.69513050  0.25212248  1
  H  H8  1  0.73080006  0.34719571  0.19758441  1
  H  H9  1  0.26919994  0.84719571  0.80241559  1
  H  H10  1  0.41518453  0.86172679  0.61169830  1
  H  H11  1  0.58481547  0.36172679  0.38830170  1
  O  O12  1  0.83526214  0.67203567  0.76234249  1
  O  O13  1  0.16473786  0.17203567  0.23765751  1
  O  O14  1  0.93622178  0.95398859  0.05462678  1
  O  O15  1  0.06377822  0.45398859  0.94537322  1
  O  O16  1  0.80051540  0.30660279  0.78237529  1
  O  O17  1  0.19948460  0.80660279  0.21762471  1
  O  O18  1  0.69504516  0.99831404  0.74181864  1
  O  O19  1  0.30495484  0.49831404  0.25818136  1
  O  O20  1  0.00410856  0.45916516  0.44462459  1
  O  O21  1  0.99589144  0.95916516  0.55537541  1
  O  O22  1  0.64785000  0.27525608  0.28340542  1
  O  O23  1  0.35215000  0.77525608  0.71659458  1
  O  O24  1  0.48304601  0.76408839  0.24313283  1
  O  O25  1  0.51695399  0.26408839  0.75686717  1
