# generated using pymatgen
data_Li3MnPCO7
_symmetry_space_group_name_H-M   'P 1'
_cell_length_a   8.61467092
_cell_length_b   4.91102921
_cell_length_c   6.51824221
_cell_angle_alpha   90.00000000
_cell_angle_beta   90.00000000
_cell_angle_gamma   85.64700170
_symmetry_Int_Tables_number   1
_chemical_formula_structural   Li3MnPCO7
_chemical_formula_sum   'Li6 Mn2 P2 C2 O14'
_cell_volume   274.97113519
_cell_formula_units_Z   2
loop_
 _symmetry_equiv_pos_site_id
 _symmetry_equiv_pos_as_xyz
  1  'x, y, z'
loop_
 _atom_site_type_symbol
 _atom_site_label
 _atom_site_symmetry_multiplicity
 _atom_site_fract_x
 _atom_site_fract_y
 _atom_site_fract_z
 _atom_site_occupancy
  Li  Li0  1  0.10559635  0.77533580  0.26472464  1
  Li  Li1  1  0.28892050  0.23516356  0.48597544  1
  Li  Li2  1  0.35619860  0.77654975  0.73720649  1
  Li  Li3  1  0.64380140  0.22345025  0.23720649  1
  Li  Li4  1  0.71107950  0.76483644  0.98597544  1
  Li  Li5  1  0.89440365  0.22466420  0.76472464  1
  Mn  Mn6  1  0.26513903  0.25633424  0.99886370  1
  Mn  Mn7  1  0.73486097  0.74366576  0.49886370  1
  P  P8  1  0.40678894  0.72048379  0.24840544  1
  P  P9  1  0.59321106  0.27951621  0.74840544  1
  C  C10  1  0.04287616  0.70581065  0.75961409  1
  C  C11  1  0.95712384  0.29418935  0.25961409  1
  O  O12  1  0.06845945  0.95830363  0.76278765  1
  O  O13  1  0.10153353  0.36877313  0.24770006  1
  O  O14  1  0.15605423  0.51512683  0.76457641  1
  O  O15  1  0.31087415  0.82605650  0.05715277  1
  O  O16  1  0.30992344  0.82518682  0.43572084  1
  O  O17  1  0.42604216  0.18218838  0.74621502  1
  O  O18  1  0.41961828  0.40071676  0.24105845  1
  O  O19  1  0.58038172  0.59928324  0.74105845  1
  O  O20  1  0.57395784  0.81781162  0.24621502  1
  O  O21  1  0.69007656  0.17481318  0.93572084  1
  O  O22  1  0.68912585  0.17394350  0.55715277  1
  O  O23  1  0.84394577  0.48487317  0.26457641  1
  O  O24  1  0.89846647  0.63122687  0.74770006  1
  O  O25  1  0.93154055  0.04169637  0.26278765  1
