# generated using pymatgen
data_LiTaWO6
_symmetry_space_group_name_H-M   'P 1'
_cell_length_a   7.44351419
_cell_length_b   7.44351419
_cell_length_c   10.44811588
_cell_angle_alpha   90.00000000
_cell_angle_beta   90.00000000
_cell_angle_gamma   90.00000000
_symmetry_Int_Tables_number   1
_chemical_formula_structural   LiTaWO6
_chemical_formula_sum   'Li4 Ta4 W4 O24'
_cell_volume   578.88730026
_cell_formula_units_Z   4
loop_
 _symmetry_equiv_pos_site_id
 _symmetry_equiv_pos_as_xyz
  1  'x, y, z'
loop_
 _atom_site_type_symbol
 _atom_site_label
 _atom_site_symmetry_multiplicity
 _atom_site_fract_x
 _atom_site_fract_y
 _atom_site_fract_z
 _atom_site_occupancy
  Li  Li0  1  0.75000000  0.38712452  0.12500000  1
  Li  Li1  1  0.11287548  0.75000000  0.37500000  1
  Li  Li2  1  0.75000000  0.11287548  0.62500000  1
  Li  Li3  1  0.38712452  0.75000000  0.87500000  1
  Ta  Ta4  1  0.75000000  0.99122304  0.12500000  1
  Ta  Ta5  1  0.50877696  0.75000000  0.37500000  1
  Ta  Ta6  1  0.75000000  0.50877696  0.62500000  1
  Ta  Ta7  1  0.99122304  0.75000000  0.87500000  1
  W  W8  1  0.25000000  0.99788059  0.12500000  1
  W  W9  1  0.50211941  0.25000000  0.37500000  1
  W  W10  1  0.25000000  0.50211941  0.62500000  1
  W  W11  1  0.99788059  0.25000000  0.87500000  1
  O  O12  1  0.80981057  0.80981057  0.00000000  1
  O  O13  1  0.17903498  0.17903498  0.00000000  1
  O  O14  1  0.81509277  0.19649610  0.00399578  1
  O  O15  1  0.19649610  0.81509277  0.99600422  1
  O  O16  1  0.99307416  0.49498554  0.93446901  1
  O  O17  1  0.50692584  0.49498554  0.31553099  1
  O  O18  1  0.69018943  0.80981057  0.25000000  1
  O  O19  1  0.30350390  0.81509277  0.25399578  1
  O  O20  1  0.32096502  0.17903498  0.25000000  1
  O  O21  1  0.68490723  0.19649610  0.24600422  1
  O  O22  1  0.00501446  0.99307416  0.18446901  1
  O  O23  1  0.00501446  0.50692584  0.56553099  1
  O  O24  1  0.69018943  0.69018943  0.50000000  1
  O  O25  1  0.32096502  0.32096502  0.50000000  1
  O  O26  1  0.30350390  0.68490723  0.49600422  1
  O  O27  1  0.68490723  0.30350390  0.50399578  1
  O  O28  1  0.50692584  0.00501446  0.43446901  1
  O  O29  1  0.99307416  0.00501446  0.81553099  1
  O  O30  1  0.81509277  0.30350390  0.74600422  1
  O  O31  1  0.17903498  0.32096502  0.75000000  1
  O  O32  1  0.80981057  0.69018943  0.75000000  1
  O  O33  1  0.19649610  0.68490723  0.75399578  1
  O  O34  1  0.49498554  0.50692584  0.68446901  1
  O  O35  1  0.49498554  0.99307416  0.06553099  1
