# generated using pymatgen
data_AlGaO3
_symmetry_space_group_name_H-M   'P 1'
_cell_length_a   5.00167591
_cell_length_b   8.60147657
_cell_length_c   9.27784445
_cell_angle_alpha   90.00000000
_cell_angle_beta   90.00000000
_cell_angle_gamma   90.00000000
_symmetry_Int_Tables_number   1
_chemical_formula_structural   AlGaO3
_chemical_formula_sum   'Al8 Ga8 O24'
_cell_volume   399.14955120
_cell_formula_units_Z   8
loop_
 _symmetry_equiv_pos_site_id
 _symmetry_equiv_pos_as_xyz
  1  'x, y, z'
loop_
 _atom_site_type_symbol
 _atom_site_label
 _atom_site_symmetry_multiplicity
 _atom_site_fract_x
 _atom_site_fract_y
 _atom_site_fract_z
 _atom_site_occupancy
  Al  Al0  1  0.17146487  0.15429886  0.00096248  1
  Al  Al1  1  0.18209594  0.83675217  0.80462339  1
  Al  Al2  1  0.31790406  0.33675217  0.30462339  1
  Al  Al3  1  0.32853513  0.65429886  0.50096248  1
  Al  Al4  1  0.67146487  0.34570114  0.00096248  1
  Al  Al5  1  0.68209594  0.66324783  0.80462339  1
  Al  Al6  1  0.81790406  0.16324783  0.30462339  1
  Al  Al7  1  0.82853513  0.84570114  0.50096248  1
  Ga  Ga8  1  0.16938241  0.46783522  0.79846743  1
  Ga  Ga9  1  0.18788524  0.14922972  0.58363228  1
  Ga  Ga10  1  0.31211476  0.64922972  0.08363228  1
  Ga  Ga11  1  0.33061759  0.96783522  0.29846743  1
  Ga  Ga12  1  0.66938241  0.03216478  0.79846743  1
  Ga  Ga13  1  0.68788524  0.35077028  0.58363228  1
  Ga  Ga14  1  0.81211476  0.85077028  0.08363228  1
  Ga  Ga15  1  0.83061759  0.53216478  0.29846743  1
  O  O16  1  0.00598686  0.32679179  0.94230632  1
  O  O17  1  0.00908204  0.01019762  0.43014460  1
  O  O18  1  0.02045687  0.67750336  0.91807059  1
  O  O19  1  0.15840441  0.82934251  0.17012736  1
  O  O20  1  0.14739164  0.16455020  0.19466485  1
  O  O21  1  0.16014134  0.49281787  0.20139069  1
  O  O22  1  0.33985866  0.99281787  0.70139069  1
  O  O23  1  0.35260836  0.66455020  0.69466485  1
  O  O24  1  0.34159559  0.32934251  0.67012736  1
  O  O25  1  0.47954313  0.17750336  0.41807059  1
  O  O26  1  0.49091796  0.51019762  0.93014460  1
  O  O27  1  0.49401314  0.82679179  0.44230632  1
  O  O28  1  0.50598686  0.17320821  0.94230632  1
  O  O29  1  0.50908204  0.48980238  0.43014460  1
  O  O30  1  0.52045687  0.82249664  0.91807059  1
  O  O31  1  0.65840441  0.67065749  0.17012736  1
  O  O32  1  0.64739164  0.33544980  0.19466485  1
  O  O33  1  0.66014134  0.00718213  0.20139069  1
  O  O34  1  0.83985866  0.50718213  0.70139069  1
  O  O35  1  0.85260836  0.83544980  0.69466485  1
  O  O36  1  0.84159559  0.17065749  0.67012736  1
  O  O37  1  0.97954313  0.32249664  0.41807059  1
  O  O38  1  0.99091796  0.98980238  0.93014460  1
  O  O39  1  0.99401314  0.67320821  0.44230632  1
