# generated using pymatgen
data_H5CSN2Cl
_symmetry_space_group_name_H-M   'P 1'
_cell_length_a   7.62573336
_cell_length_b   7.62573336
_cell_length_c   18.81543685
_cell_angle_alpha   90.00000000
_cell_angle_beta   90.00000000
_cell_angle_gamma   90.00000000
_symmetry_Int_Tables_number   1
_chemical_formula_structural   H5CSN2Cl
_chemical_formula_sum   'H40 C8 S8 N16 Cl8'
_cell_volume   1094.15169518
_cell_formula_units_Z   8
loop_
 _symmetry_equiv_pos_site_id
 _symmetry_equiv_pos_as_xyz
  1  'x, y, z'
loop_
 _atom_site_type_symbol
 _atom_site_label
 _atom_site_symmetry_multiplicity
 _atom_site_fract_x
 _atom_site_fract_y
 _atom_site_fract_z
 _atom_site_occupancy
  H  H0  1  0.39867304  0.81914890  0.20096709  1
  H  H1  1  0.36101234  0.63567809  0.64047422  1
  H  H2  1  0.22745349  0.49815025  0.21637999  1
  H  H3  1  0.80561105  0.77009227  0.29268907  1
  H  H4  1  0.27009227  0.69438895  0.04268907  1
  H  H5  1  0.18085110  0.60132696  0.29903291  1
  H  H6  1  0.77254651  0.50184975  0.71637999  1
  H  H7  1  0.43458192  0.68182205  0.53361230  1
  H  H8  1  -0.00184975  0.27254651  0.96637999  1
  H  H9  1  0.30561105  0.72990773  0.45731093  1
  H  H10  1  0.72990773  0.30561105  0.54268907  1
  H  H11  1  0.89867304  0.68085110  0.54903291  1
  H  H12  1  0.68085110  0.89867304  0.45096709  1
  H  H13  1  0.69438895  0.27009227  0.95731093  1
  H  H14  1  0.06541808  0.18182205  0.71638770  1
  H  H15  1  0.93458192  0.81817795  0.21638770  1
  H  H16  1  0.72745349  1.00184975  0.53362001  1
  H  H17  1  0.31914890  0.10132696  0.95096709  1
  H  H18  1  0.77009227  0.80561105  0.70731093  1
  H  H19  1  0.27254651  -0.00184975  0.03362001  1
  H  H20  1  0.63567809  0.36101234  0.35952578  1
  H  H21  1  0.81914890  0.39867304  0.79903291  1
  H  H22  1  1.00184975  0.72745349  0.46637999  1
  H  H23  1  0.10132696  0.31914890  0.04903291  1
  H  H24  1  0.13567809  0.13898766  0.39047422  1
  H  H25  1  0.81817795  0.93458192  0.78361230  1
  H  H26  1  0.50184975  0.77254651  0.28362001  1
  H  H27  1  0.36432191  0.63898766  0.85952578  1
  H  H28  1  0.56541808  0.31817795  0.03361230  1
  H  H29  1  0.68182205  0.43458192  0.46638770  1
  H  H30  1  0.22990773  0.19438895  0.20731093  1
  H  H31  1  0.31817795  0.56541808  0.96638770  1
  H  H32  1  0.60132696  0.18085110  0.70096709  1
  H  H33  1  0.86432191  0.86101234  0.89047422  1
  H  H34  1  0.86101234  0.86432191  0.10952578  1
  H  H35  1  0.13898766  0.13567809  0.60952578  1
  H  H36  1  0.19438895  0.22990773  0.79268907  1
  H  H37  1  0.18182205  0.06541808  0.28361230  1
  H  H38  1  0.49815025  0.22745349  0.78362001  1
  H  H39  1  0.63898766  0.36432191  0.14047422  1
  C  C40  1  0.33096615  0.17886384  0.70171741  1
  C  C41  1  0.82113616  0.66903385  0.79828259  1
  C  C42  1  0.16903385  0.67886384  0.54828259  1
  C  C43  1  0.83096615  0.32113616  0.04828259  1
  C  C44  1  0.32113616  0.83096615  0.95171741  1
  C  C45  1  0.66903385  0.82113616  0.20171741  1
  C  C46  1  0.67886384  0.16903385  0.45171741  1
  C  C47  1  0.17886384  0.33096615  0.29828259  1
  S  S48  1  0.13109895  0.31936260  0.38885282  1
  S  S49  1  0.68063740  0.86890105  0.11114718  1
  S  S50  1  0.81936260  0.36890105  0.13885282  1
  S  S51  1  0.18063740  0.63109895  0.63885282  1
  S  S52  1  0.31936260  0.13109895  0.61114718  1
  S  S53  1  0.86890105  0.68063740  0.88885282  1
  S  S54  1  0.36890105  0.81936260  0.86114718  1
  S  S55  1  0.63109895  0.18063740  0.36114718  1
  N  N56  1  0.48888863  0.19535598  0.73078765  1
  N  N57  1  0.19732371  0.18612550  0.26020621  1
  N  N58  1  0.18612550  0.19732371  0.73979379  1
  N  N59  1  0.81387450  0.80267629  0.23979379  1
  N  N60  1  0.80464402  0.51111137  0.76921235  1
  N  N61  1  0.30267629  0.68612550  0.98979379  1
  N  N62  1  0.01111137  0.69535598  0.51921235  1
  N  N63  1  0.80267629  0.81387450  0.76020621  1
  N  N64  1  0.69732371  0.31387450  0.48979379  1
  N  N65  1  0.19535598  0.48888863  0.26921235  1
  N  N66  1  0.68612550  0.30267629  0.01020621  1
  N  N67  1  0.31387450  0.69732371  0.51020621  1
  N  N68  1  0.98888863  0.30464402  0.01921235  1
  N  N69  1  0.69535598  0.01111137  0.48078765  1
  N  N70  1  0.30464402  0.98888863  0.98078765  1
  N  N71  1  0.51111137  0.80464402  0.23078765  1
  Cl  Cl72  1  0.84626304  0.14487159  0.63740376  1
  Cl  Cl73  1  0.15373696  0.85512841  0.13740376  1
  Cl  Cl74  1  0.65373696  0.64487159  0.61259624  1
  Cl  Cl75  1  0.34626304  0.35512841  0.11259624  1
  Cl  Cl76  1  0.35512841  0.34626304  0.88740376  1
  Cl  Cl77  1  0.14487159  0.84626304  0.36259624  1
  Cl  Cl78  1  0.64487159  0.65373696  0.38740376  1
  Cl  Cl79  1  0.85512841  0.15373696  0.86259624  1
