# generated using pymatgen
data_Cs2V5O13
_symmetry_space_group_name_H-M   'P 1'
_cell_length_a   7.87943240
_cell_length_b   7.87943293
_cell_length_c   8.28120686
_cell_angle_alpha   118.40765814
_cell_angle_beta   118.40766060
_cell_angle_gamma   90.00000378
_symmetry_Int_Tables_number   1
_chemical_formula_structural   Cs2V5O13
_chemical_formula_sum   'Cs2 V5 O13'
_cell_volume   380.37494947
_cell_formula_units_Z   1
loop_
 _symmetry_equiv_pos_site_id
 _symmetry_equiv_pos_as_xyz
  1  'x, y, z'
loop_
 _atom_site_type_symbol
 _atom_site_label
 _atom_site_symmetry_multiplicity
 _atom_site_fract_x
 _atom_site_fract_y
 _atom_site_fract_z
 _atom_site_occupancy
  Cs  Cs0  1  0.25514991  0.75514991  0.51029982  1
  Cs  Cs1  1  0.75514991  0.25514991  0.51029982  1
  V  V2  1  0.22485859  0.22485859  0.99903213  1
  V  V3  1  0.77417354  0.22485859  0.99903213  1
  V  V4  1  0.64609628  0.64609628  0.29219257  1
  V  V5  1  0.77417354  0.77417354  0.99903213  1
  V  V6  1  0.22485859  0.77417354  0.99903213  1
  O  O7  1  0.01173977  0.28136836  0.02347954  1
  O  O8  1  0.01173977  0.74211118  0.02347954  1
  O  O9  1  0.28136836  0.01173977  0.02347954  1
  O  O10  1  0.58631280  0.17709569  0.76340850  1
  O  O11  1  0.77731767  0.77731767  0.21096295  1
  O  O12  1  0.77731767  0.43364528  0.21096295  1
  O  O13  1  0.17709569  0.58631280  0.76340850  1
  O  O14  1  0.58631280  0.58631280  0.76340850  1
  O  O15  1  0.43364528  0.77731767  0.21096295  1
  O  O16  1  0.43364528  0.43364528  0.21096295  1
  O  O17  1  0.17709569  0.17709569  0.76340850  1
  O  O18  1  0.74211118  0.01173977  0.02347954  1
  O  O19  1  0.78003767  0.78003767  0.56007534  1
