# generated using pymatgen
data_Cs2SnAs2
_symmetry_space_group_name_H-M   'P 1'
_cell_length_a   7.08531377
_cell_length_b   7.90887541
_cell_length_c   9.16066786
_cell_angle_alpha   115.57395130
_cell_angle_beta   112.75085597
_cell_angle_gamma   89.99999999
_symmetry_Int_Tables_number   1
_chemical_formula_structural   Cs2SnAs2
_chemical_formula_sum   'Cs4 Sn2 As4'
_cell_volume   418.32875801
_cell_formula_units_Z   2
loop_
 _symmetry_equiv_pos_site_id
 _symmetry_equiv_pos_as_xyz
  1  'x, y, z'
loop_
 _atom_site_type_symbol
 _atom_site_label
 _atom_site_symmetry_multiplicity
 _atom_site_fract_x
 _atom_site_fract_y
 _atom_site_fract_z
 _atom_site_occupancy
  As  As0  1  0.40100798  0.22836220  0.80201597  1
  As  As1  1  0.59899202  0.77163780  0.19798403  1
  As  As2  1  0.09899202  0.42634623  0.19798403  1
  As  As3  1  0.90100798  0.57365377  0.80201597  1
  Sn  Sn4  1  0.25000000  0.50000000  0.00000000  1
  Sn  Sn5  1  0.75000000  0.50000000  0.00000000  1
  Cs  Cs6  1  0.14519502  0.98123011  0.29039004  1
  Cs  Cs7  1  0.85480498  0.01876989  0.70960996  1
  Cs  Cs8  1  0.35480498  0.69084007  0.70960996  1
  Cs  Cs9  1  0.64519502  0.30915993  0.29039004  1
