# generated using pymatgen
data_Zn2GeS4
_symmetry_space_group_name_H-M   'P 1'
_cell_length_a   7.75107293
_cell_length_b   10.05760939
_cell_length_c   6.39780411
_cell_angle_alpha   29.53586736
_cell_angle_beta   52.71896912
_cell_angle_gamma   39.45576182
_symmetry_Int_Tables_number   1
_chemical_formula_structural   Zn2GeS4
_chemical_formula_sum   'Zn2 Ge1 S4'
_cell_volume   152.73388383
_cell_formula_units_Z   1
loop_
 _symmetry_equiv_pos_site_id
 _symmetry_equiv_pos_as_xyz
  1  'x, y, z'
loop_
 _atom_site_type_symbol
 _atom_site_label
 _atom_site_symmetry_multiplicity
 _atom_site_fract_x
 _atom_site_fract_y
 _atom_site_fract_z
 _atom_site_occupancy
  Zn  Zn0  1  0.00320945  0.99742578  0.00155591  1
  Zn  Zn1  1  0.50002065  0.99812177  0.00521470  1
  Ge  Ge2  1  0.24985231  0.50026283  0.00059240  1
  S  S3  1  0.11940011  0.99373669  0.27406409  1
  S  S4  1  0.61447254  0.00760981  0.25853468  1
  S  S5  1  0.38132914  0.49639063  0.23828432  1
  S  S6  1  0.88664180  0.49997950  0.23534790  1
