# generated using pymatgen
data_K2Hg3(GeS4)2
_symmetry_space_group_name_H-M   'P 1'
_cell_length_a   6.55276803
_cell_length_b   6.55276803
_cell_length_c   9.88572253
_cell_angle_alpha   86.47150883
_cell_angle_beta   86.47150886
_cell_angle_gamma   83.26255375
_symmetry_Int_Tables_number   1
_chemical_formula_structural   K2Hg3(GeS4)2
_chemical_formula_sum   'K2 Hg3 Ge2 S8'
_cell_volume   420.11786550
_cell_formula_units_Z   1
loop_
 _symmetry_equiv_pos_site_id
 _symmetry_equiv_pos_as_xyz
  1  'x, y, z'
loop_
 _atom_site_type_symbol
 _atom_site_label
 _atom_site_symmetry_multiplicity
 _atom_site_fract_x
 _atom_site_fract_y
 _atom_site_fract_z
 _atom_site_occupancy
  S  S0  1  0.24436141  0.28523860  0.08130783  1
  S  S1  1  0.71476140  0.75563859  0.91869217  1
  S  S2  1  0.23588052  0.84095457  0.74127221  1
  S  S3  1  0.15904543  0.76411948  0.25872779  1
  S  S4  1  0.76808596  0.39355433  0.26075774  1
  S  S5  1  0.23004679  0.27032855  0.45839441  1
  S  S6  1  0.72967145  0.76995321  0.54160559  1
  S  S7  1  0.60644567  0.23191404  0.73924226  1
  K  K8  1  0.63379014  0.93328954  0.23012300  1
  K  K9  1  0.06671046  0.36620986  0.76987700  1
  Ge  Ge10  1  0.56982335  0.89532282  0.72523332  1
  Ge  Ge11  1  0.10467718  0.43017665  0.27476668  1
  Hg  Hg12  1  0.47591087  0.52408913  0.00000000  1
  Hg  Hg13  1  0.15685100  0.84314900  0.50000000  1
  Hg  Hg14  1  0.63994835  0.36005165  0.50000000  1
