# generated using pymatgen
data_Mn3SnO8
_symmetry_space_group_name_H-M   'P 1'
_cell_length_a   8.44690679
_cell_length_b   8.44688174
_cell_length_c   8.44731113
_cell_angle_alpha   89.99961527
_cell_angle_beta   89.99977318
_cell_angle_gamma   90.00026067
_symmetry_Int_Tables_number   1
_chemical_formula_structural   Mn3SnO8
_chemical_formula_sum   'Mn12 Sn4 O32'
_cell_volume   602.71584107
_cell_formula_units_Z   4
loop_
 _symmetry_equiv_pos_site_id
 _symmetry_equiv_pos_as_xyz
  1  'x, y, z'
loop_
 _atom_site_type_symbol
 _atom_site_label
 _atom_site_symmetry_multiplicity
 _atom_site_fract_x
 _atom_site_fract_y
 _atom_site_fract_z
 _atom_site_occupancy
  Mn  Mn0  1  0.11145879  0.13850766  0.62503742  1
  Mn  Mn1  1  0.12504524  0.38854218  0.86149758  1
  Mn  Mn2  1  0.13851521  0.62504494  0.11146359  1
  Mn  Mn3  1  0.36148863  0.37495268  0.61144903  1
  Mn  Mn4  1  0.37496895  0.61146801  0.36149765  1
  Mn  Mn5  1  0.38853655  0.86149941  0.12503235  1
  Mn  Mn6  1  0.61147014  0.36150159  0.37496512  1
  Mn  Mn7  1  0.62504381  0.11146293  0.13851024  1
  Mn  Mn8  1  0.63850720  0.87495909  0.88854706  1
  Mn  Mn9  1  0.86149016  0.12505578  0.38854839  1
  Mn  Mn10  1  0.87495217  0.88854444  0.63850079  1
  Mn  Mn11  1  0.88853599  0.63851075  0.87497469  1
  Sn  Sn12  1  0.12497190  0.87501742  0.37500667  1
  Sn  Sn13  1  0.37501309  0.12498774  0.87501161  1
  Sn  Sn14  1  0.62497463  0.62497288  0.62501206  1
  Sn  Sn15  1  0.87502271  0.37501514  0.12500187  1
  O  O16  1  0.09172434  0.12334938  0.39576151  1
  O  O17  1  0.10423246  0.90827209  0.62331030  1
  O  O18  1  0.11796634  0.61796528  0.88203737  1
  O  O19  1  0.12672702  0.15826151  0.85433456  1
  O  O20  1  0.12334640  0.39576043  0.09172488  1
  O  O21  1  0.13204816  0.36794888  0.63207294  1
  O  O22  1  0.14564894  0.62673652  0.34171992  1
  O  O23  1  0.15826079  0.85436280  0.12672377  1
  O  O24  1  0.34173092  0.14563996  0.62672312  1
  O  O25  1  0.35435515  0.37326873  0.84170750  1
  O  O26  1  0.36795259  0.63205726  0.13207031  1
  O  O27  1  0.37666164  0.60423575  0.59171713  1
  O  O28  1  0.37327251  0.84174787  0.35433051  1
  O  O29  1  0.38204450  0.38203602  0.38202335  1
  O  O30  1  0.39576295  0.09173405  0.12331261  1
  O  O31  1  0.40827173  0.87666144  0.89575938  1
  O  O32  1  0.59172303  0.37665869  0.60423814  1
  O  O33  1  0.60424403  0.59173624  0.37669654  1
  O  O34  1  0.61796508  0.88203628  0.11796478  1
  O  O35  1  0.62673794  0.34174525  0.14567486  1
  O  O36  1  0.62333655  0.10424106  0.90828149  1
  O  O37  1  0.63205257  0.13206439  0.36793521  1
  O  O38  1  0.64563631  0.87327066  0.65828872  1
  O  O39  1  0.65825913  0.64564399  0.87328613  1
  O  O40  1  0.84174319  0.35436615  0.37328202  1
  O  O41  1  0.85435550  0.12673276  0.15829458  1
  O  O42  1  0.86793958  0.86794965  0.86793495  1
  O  O43  1  0.87666182  0.89576908  0.40827978  1
  O  O44  1  0.87326680  0.65826364  0.64568001  1
  O  O45  1  0.88202743  0.11797244  0.61797148  1
  O  O46  1  0.89576563  0.40827172  0.87669653  1
  O  O47  1  0.90828181  0.62334040  0.10424746  1
