# generated using pymatgen
data_Cd(GaS2)2
_symmetry_space_group_name_H-M   'P 1'
_cell_length_a   5.64579039
_cell_length_b   5.64579039
_cell_length_c   6.54336135
_cell_angle_alpha   115.55730532
_cell_angle_beta   115.55730534
_cell_angle_gamma   90.00000001
_symmetry_Int_Tables_number   1
_chemical_formula_structural   Cd(GaS2)2
_chemical_formula_sum   'Cd1 Ga2 S4'
_cell_volume   165.25279335
_cell_formula_units_Z   1
loop_
 _symmetry_equiv_pos_site_id
 _symmetry_equiv_pos_as_xyz
  1  'x, y, z'
loop_
 _atom_site_type_symbol
 _atom_site_label
 _atom_site_symmetry_multiplicity
 _atom_site_fract_x
 _atom_site_fract_y
 _atom_site_fract_z
 _atom_site_occupancy
  S  S0  1  0.86852116  0.86269455  0.27063718  1
  S  S1  1  0.59205737  0.13147884  0.72936282  1
  S  S2  1  0.13730545  0.59788397  0.72936282  1
  S  S3  1  0.40211603  0.40794263  0.27063718  1
  Ga  Ga4  1  0.25000000  0.75000000  0.50000000  1
  Ga  Ga5  1  0.50000000  0.50000000  0.00000000  1
  Cd  Cd6  1  0.00000000  0.00000000  0.00000000  1
