# generated using pymatgen
data_Y3CuSiSe7
_symmetry_space_group_name_H-M   'P 1'
_cell_length_a   10.36455027
_cell_length_b   10.36455039
_cell_length_c   6.03296529
_cell_angle_alpha   90.00000000
_cell_angle_beta   90.00000000
_cell_angle_gamma   119.99999961
_symmetry_Int_Tables_number   1
_chemical_formula_structural   Y3CuSiSe7
_chemical_formula_sum   'Y6 Cu2 Si2 Se14'
_cell_volume   561.25779998
_cell_formula_units_Z   2
loop_
 _symmetry_equiv_pos_site_id
 _symmetry_equiv_pos_as_xyz
  1  'x, y, z'
loop_
 _atom_site_type_symbol
 _atom_site_label
 _atom_site_symmetry_multiplicity
 _atom_site_fract_x
 _atom_site_fract_y
 _atom_site_fract_z
 _atom_site_occupancy
  Y  Y0  1  0.22289913  0.35591002  0.92310894  1
  Y  Y1  1  0.64408998  0.86698911  0.92310894  1
  Y  Y2  1  0.86698949  0.22289896  0.42310912  1
  Y  Y3  1  0.77710104  0.64409053  0.42310912  1
  Y  Y4  1  0.13301089  0.77710087  0.92310894  1
  Y  Y5  1  0.35590947  0.13301051  0.42310912  1
  Cu  Cu6  1  0.00000000  0.00000000  0.97167625  1
  Si  Si7  1  0.66666700  0.33333300  0.83386793  1
  Cu  Cu8  1  0.00000000  0.00000000  0.47165651  1
  Si  Si9  1  0.33333300  0.66666700  0.33386804  1
  Se  Se10  1  0.83791898  0.73858104  0.95267849  1
  Se  Se11  1  0.42100789  0.89941900  0.17929716  1
  Se  Se12  1  0.26141896  0.09933794  0.95267849  1
  Se  Se13  1  0.16208130  0.26141860  0.45267885  1
  Se  Se14  1  0.47841111  0.57899211  0.17929716  1
  Se  Se15  1  0.73858140  0.90066270  0.45267885  1
  Se  Se16  1  0.57899216  0.10058100  0.67929692  1
  Se  Se17  1  0.33333300  0.66666700  0.71111153  1
  Se  Se18  1  0.89941900  0.47841115  0.67929692  1
  Se  Se19  1  0.66666700  0.33333300  0.21111129  1
  Se  Se20  1  0.90066206  0.16208102  0.95267849  1
  Se  Se21  1  0.09933730  0.83791870  0.45267885  1
  Se  Se22  1  0.10058100  0.52158889  0.17929716  1
  Se  Se23  1  0.52158885  0.42100784  0.67929692  1
