# generated using pymatgen
data_Re3S4Cl
_symmetry_space_group_name_H-M   'P 1'
_cell_length_a   6.46721785
_cell_length_b   10.12110891
_cell_length_c   11.53301676
_cell_angle_alpha   90.00000000
_cell_angle_beta   90.00000000
_cell_angle_gamma   100.45642680
_symmetry_Int_Tables_number   1
_chemical_formula_structural   Re3S4Cl
_chemical_formula_sum   'Re12 S16 Cl4'
_cell_volume   742.36197470
_cell_formula_units_Z   4
loop_
 _symmetry_equiv_pos_site_id
 _symmetry_equiv_pos_as_xyz
  1  'x, y, z'
loop_
 _atom_site_type_symbol
 _atom_site_label
 _atom_site_symmetry_multiplicity
 _atom_site_fract_x
 _atom_site_fract_y
 _atom_site_fract_z
 _atom_site_occupancy
  Re  Re0  1  0.75372407  0.06529785  0.02194507  1
  Re  Re1  1  0.24627593  0.93470215  0.97805493  1
  Re  Re2  1  0.40746488  0.43850102  0.64686695  1
  Re  Re3  1  0.12460614  0.16292920  0.93384280  1
  Re  Re4  1  0.37539386  0.33707080  0.43384280  1
  Re  Re5  1  0.90746488  0.93850102  0.85313305  1
  Re  Re6  1  0.59253512  0.56149898  0.35313305  1
  Re  Re7  1  0.62460614  0.66292920  0.56615720  1
  Re  Re8  1  0.87539386  0.83707080  0.06615720  1
  Re  Re9  1  0.09253512  0.06149898  0.14686695  1
  Re  Re10  1  0.25372407  0.56529785  0.47805493  1
  Re  Re11  1  0.74627593  0.43470215  0.52194507  1
  S  S12  1  0.19583379  0.84523769  0.17200583  1
  S  S13  1  0.52976843  0.23378729  0.59291099  1
  S  S14  1  0.92565618  0.66057372  0.44115209  1
  S  S15  1  0.02976843  0.73378729  0.90708901  1
  S  S16  1  0.30416621  0.65476231  0.67200583  1
  S  S17  1  0.97023157  0.26621271  0.09291099  1
  S  S18  1  0.24603877  0.47032693  0.28607763  1
  S  S19  1  0.69583379  0.34523769  0.32799417  1
  S  S20  1  0.74603877  0.97032693  0.21392237  1
  S  S21  1  0.75396123  0.52967307  0.71392237  1
  S  S22  1  0.47023157  0.76621271  0.40708901  1
  S  S23  1  0.42565618  0.16057372  0.05884791  1
  S  S24  1  0.80416621  0.15476231  0.82799417  1
  S  S25  1  0.57434382  0.83942628  0.94115209  1
  S  S26  1  0.07434382  0.33942628  0.55884791  1
  S  S27  1  0.25396123  0.02967307  0.78607763  1
  Cl  Cl28  1  0.70919374  0.61369553  0.14677038  1
  Cl  Cl29  1  0.29080626  0.38630447  0.85322962  1
  Cl  Cl30  1  0.79080626  0.88630447  0.64677038  1
  Cl  Cl31  1  0.20919374  0.11369553  0.35322962  1
