# generated using pymatgen
data_Li4CoSn3(PO4)4
_symmetry_space_group_name_H-M   'P 1'
_cell_length_a   4.85562899
_cell_length_b   10.93427914
_cell_length_c   6.76970163
_cell_angle_alpha   90.00000000
_cell_angle_beta   90.00000000
_cell_angle_gamma   91.20619196
_symmetry_Int_Tables_number   1
_chemical_formula_structural   Li4CoSn3(PO4)4
_chemical_formula_sum   'Li4 Co1 Sn3 P4 O16'
_cell_volume   359.34279049
_cell_formula_units_Z   1
loop_
 _symmetry_equiv_pos_site_id
 _symmetry_equiv_pos_as_xyz
  1  'x, y, z'
loop_
 _atom_site_type_symbol
 _atom_site_label
 _atom_site_symmetry_multiplicity
 _atom_site_fract_x
 _atom_site_fract_y
 _atom_site_fract_z
 _atom_site_occupancy
  Li  Li0  1  0.96681916  0.99246104  0.02374140  1
  Li  Li1  1  0.96681916  0.99246104  0.47625860  1
  Li  Li2  1  0.49778050  0.51282231  0.50686387  1
  Li  Li3  1  0.49778050  0.51282231  0.99313613  1
  Co  Co4  1  0.03555562  0.72843496  0.75000000  1
  Sn  Sn5  1  0.46645381  0.21846664  0.75000000  1
  Sn  Sn6  1  0.54179118  0.78223057  0.25000000  1
  Sn  Sn7  1  0.94285668  0.29597759  0.25000000  1
  P  P8  1  0.09554207  0.58371827  0.25000000  1
  P  P9  1  0.38031324  0.07112038  0.25000000  1
  P  P10  1  0.62320220  0.89842049  0.75000000  1
  P  P11  1  0.91548367  0.44359257  0.75000000  1
  O  O12  1  0.23667406  0.45369896  0.25000000  1
  O  O13  1  0.21370744  0.65229703  0.06364407  1
  O  O14  1  0.21370744  0.65229703  0.43635593  1
  O  O15  1  0.23161720  0.44555048  0.75000000  1
  O  O16  1  0.30863637  0.87958617  0.75000000  1
  O  O17  1  0.27444729  0.14304492  0.06474833  1
  O  O18  1  0.27444729  0.14304492  0.43525167  1
  O  O19  1  0.22114920  0.94484500  0.25000000  1
  O  O20  1  0.71785630  0.03676190  0.75000000  1
  O  O21  1  0.76848119  0.83780146  0.56934007  1
  O  O22  1  0.76848119  0.83780146  0.93065993  1
  O  O23  1  0.69197356  0.05108071  0.25000000  1
  O  O24  1  0.78056301  0.56898485  0.25000000  1
  O  O25  1  0.78841999  0.37308670  0.56729453  1
  O  O26  1  0.78841999  0.37308670  0.93270547  1
  O  O27  1  0.79102371  0.57450451  0.75000000  1
