# generated using pymatgen
data_Li4MnSb2WO12
_symmetry_space_group_name_H-M   'P 1'
_cell_length_a   5.41178116
_cell_length_b   10.83301618
_cell_length_c   9.53721060
_cell_angle_alpha   28.36472229
_cell_angle_beta   51.47464743
_cell_angle_gamma   56.74587471
_symmetry_Int_Tables_number   1
_chemical_formula_structural   Li4MnSb2WO12
_chemical_formula_sum   'Li4 Mn1 Sb2 W1 O12'
_cell_volume   207.81235216
_cell_formula_units_Z   1
loop_
 _symmetry_equiv_pos_site_id
 _symmetry_equiv_pos_as_xyz
  1  'x, y, z'
loop_
 _atom_site_type_symbol
 _atom_site_label
 _atom_site_symmetry_multiplicity
 _atom_site_fract_x
 _atom_site_fract_y
 _atom_site_fract_z
 _atom_site_occupancy
  Li  Li0  1  0.25477645  0.99881892  0.30647511  1
  Li  Li1  1  0.31405916  0.49582324  0.26966755  1
  Li  Li2  1  0.76743287  0.00433248  0.73847383  1
  Li  Li3  1  0.77739744  0.49676992  0.81191925  1
  Mn  Mn4  1  0.00614493  0.50006106  0.99880835  1
  Sb  Sb5  1  0.49724876  0.00095873  0.50272572  1
  Sb  Sb6  1  0.50627031  0.50140145  0.49965787  1
  W  W7  1  0.99554774  0.00056380  0.00327802  1
  O  O8  1  0.36855603  0.30215294  0.12661697  1
  O  O9  1  0.23007288  0.12642524  0.63119350  1
  O  O10  1  0.11928614  0.31374196  0.74348252  1
  O  O11  1  0.87207882  0.20290859  0.22732937  1
  O  O12  1  0.37393051  0.81753789  0.11469663  1
  O  O13  1  0.72452783  0.37892861  0.37123797  1
  O  O14  1  0.23661557  0.62931160  0.62005063  1
  O  O15  1  0.62185896  0.17259318  0.88869328  1
  O  O16  1  0.12786965  0.81435554  0.73597933  1
  O  O17  1  0.89241920  0.68875905  0.24105742  1
  O  O18  1  0.75178474  0.87388374  0.36878191  1
  O  O19  1  0.63332001  0.68066905  0.87107379  1
