# generated using pymatgen
data_Tm(CuTe)3
_symmetry_space_group_name_H-M   'P 1'
_cell_length_a   6.90612391
_cell_length_b   7.59751142
_cell_length_c   12.72601254
_cell_angle_alpha   90.00000000
_cell_angle_beta   90.00000000
_cell_angle_gamma   90.00000000
_symmetry_Int_Tables_number   1
_chemical_formula_structural   Tm(CuTe)3
_chemical_formula_sum   'Tm4 Cu12 Te12'
_cell_volume   667.72567318
_cell_formula_units_Z   4
loop_
 _symmetry_equiv_pos_site_id
 _symmetry_equiv_pos_as_xyz
  1  'x, y, z'
loop_
 _atom_site_type_symbol
 _atom_site_label
 _atom_site_symmetry_multiplicity
 _atom_site_fract_x
 _atom_site_fract_y
 _atom_site_fract_z
 _atom_site_occupancy
  Tm  Tm0  1  0.23488599  0.75151127  0.16299093  1
  Tm  Tm1  1  0.73488599  0.24848873  0.33700907  1
  Tm  Tm2  1  0.73488599  0.24848873  0.66299093  1
  Tm  Tm3  1  0.23488599  0.75151127  0.83700907  1
  Cu  Cu4  1  0.37127386  0.11879763  0.16661170  1
  Cu  Cu5  1  0.62318676  0.61653812  0.00000000  1
  Cu  Cu6  1  0.12351705  0.38046281  0.82210644  1
  Cu  Cu7  1  0.12318676  0.38346188  0.50000000  1
  Cu  Cu8  1  0.87268090  0.88272414  0.00000000  1
  Cu  Cu9  1  0.37268090  0.11727586  0.50000000  1
  Cu  Cu10  1  0.62351705  0.61953719  0.32210644  1
  Cu  Cu11  1  0.87127386  0.88120237  0.33338830  1
  Cu  Cu12  1  0.12351705  0.38046281  0.17789356  1
  Cu  Cu13  1  0.37127386  0.11879763  0.83338830  1
  Cu  Cu14  1  0.87127386  0.88120237  0.66661170  1
  Cu  Cu15  1  0.62351705  0.61953719  0.67789356  1
  Te  Te16  1  0.97740539  0.06741685  0.16568587  1
  Te  Te17  1  0.00475819  0.56398595  0.33812179  1
  Te  Te18  1  0.97740539  0.06741685  0.83431413  1
  Te  Te19  1  0.98975274  0.06002399  0.50000000  1
  Te  Te20  1  0.50475819  0.43601405  0.16187821  1
  Te  Te21  1  0.49749864  0.44757705  0.50000000  1
  Te  Te22  1  0.99749864  0.55242295  0.00000000  1
  Te  Te23  1  0.47740539  0.93258315  0.33431413  1
  Te  Te24  1  0.48975274  0.93997601  0.00000000  1
  Te  Te25  1  0.00475819  0.56398595  0.66187821  1
  Te  Te26  1  0.50475819  0.43601405  0.83812179  1
  Te  Te27  1  0.47740539  0.93258315  0.66568587  1
