# generated using pymatgen
data_Li7NbN4
_symmetry_space_group_name_H-M   'P 1'
_cell_length_a   9.85966214
_cell_length_b   9.85966214
_cell_length_c   9.85966214
_cell_angle_alpha   90.00000000
_cell_angle_beta   90.00000000
_cell_angle_gamma   90.00000000
_symmetry_Int_Tables_number   1
_chemical_formula_structural   Li7NbN4
_chemical_formula_sum   'Li56 Nb8 N32'
_cell_volume   958.48671953
_cell_formula_units_Z   8
loop_
 _symmetry_equiv_pos_site_id
 _symmetry_equiv_pos_as_xyz
  1  'x, y, z'
loop_
 _atom_site_type_symbol
 _atom_site_label
 _atom_site_symmetry_multiplicity
 _atom_site_fract_x
 _atom_site_fract_y
 _atom_site_fract_z
 _atom_site_occupancy
  Li  Li0  1  0.13157354  0.36842646  0.63157354  1
  Li  Li1  1  0.36842646  0.63157354  0.13157354  1
  Li  Li2  1  0.63157354  0.13157354  0.36842646  1
  Li  Li3  1  0.86842646  0.86842646  0.86842646  1
  Li  Li4  1  0.86842646  0.63157354  0.36842646  1
  Li  Li5  1  0.63157354  0.36842646  0.86842646  1
  Li  Li6  1  0.36842646  0.86842646  0.63157354  1
  Li  Li7  1  0.13157354  0.13157354  0.13157354  1
  Li  Li8  1  0.62032247  0.89952184  0.63190637  1
  Li  Li9  1  0.12032247  0.60047816  0.36809363  1
  Li  Li10  1  0.37967753  0.39952184  0.86809363  1
  Li  Li11  1  0.60047816  0.36809363  0.12032247  1
  Li  Li12  1  0.86809363  0.37967753  0.39952184  1
  Li  Li13  1  0.36809363  0.12032247  0.60047816  1
  Li  Li14  1  0.89952184  0.63190637  0.62032247  1
  Li  Li15  1  0.63190637  0.62032247  0.89952184  1
  Li  Li16  1  0.39952184  0.86809363  0.37967753  1
  Li  Li17  1  0.10047816  0.13190637  0.87967753  1
  Li  Li18  1  0.13190637  0.87967753  0.10047816  1
  Li  Li19  1  0.87967753  0.10047816  0.13190637  1
  Li  Li20  1  0.37967753  0.10047816  0.36809363  1
  Li  Li21  1  0.87967753  0.39952184  0.63190637  1
  Li  Li22  1  0.62032247  0.60047816  0.13190637  1
  Li  Li23  1  0.63923927  0.11620903  0.86887286  1
  Li  Li24  1  0.39952184  0.63190637  0.87967753  1
  Li  Li25  1  0.63190637  0.87967753  0.39952184  1
  Li  Li26  1  0.10047816  0.36809363  0.37967753  1
  Li  Li27  1  0.36809363  0.37967753  0.10047816  1
  Li  Li28  1  0.60047816  0.13190637  0.62032247  1
  Li  Li29  1  0.89952184  0.86809363  0.12032247  1
  Li  Li30  1  0.86809363  0.12032247  0.89952184  1
  Li  Li31  1  0.12032247  0.89952184  0.86809363  1
  Li  Li32  1  0.13112714  0.13923927  0.38379097  1
  Li  Li33  1  0.63112714  0.36076073  0.61620903  1
  Li  Li34  1  0.86887286  0.63923927  0.11620903  1
  Li  Li35  1  0.36076073  0.61620903  0.63112714  1
  Li  Li36  1  0.11620903  0.86887286  0.63923927  1
  Li  Li37  1  0.61620903  0.63112714  0.36076073  1
  Li  Li38  1  0.13923927  0.38379097  0.13112714  1
  Li  Li39  1  0.38379097  0.13112714  0.13923927  1
  Li  Li40  1  0.63112714  0.13923927  0.11620903  1
  Li  Li41  1  0.11620903  0.63112714  0.13923927  1
  Li  Li42  1  0.13923927  0.11620903  0.63112714  1
  Li  Li43  1  0.36076073  0.88379097  0.13112714  1
  Li  Li44  1  0.61620903  0.86887286  0.86076073  1
  Li  Li45  1  0.86076073  0.61620903  0.86887286  1
  Li  Li46  1  0.38379097  0.36887286  0.63923927  1
  Li  Li47  1  0.88379097  0.13112714  0.36076073  1
  Li  Li48  1  0.63923927  0.38379097  0.36887286  1
  Li  Li49  1  0.13112714  0.36076073  0.88379097  1
  Li  Li50  1  0.36887286  0.63923927  0.38379097  1
  Li  Li51  1  0.86887286  0.86076073  0.61620903  1
  Li  Li52  1  0.36887286  0.86076073  0.88379097  1
  Li  Li53  1  0.88379097  0.36887286  0.86076073  1
  Li  Li54  1  0.86076073  0.88379097  0.36887286  1
  Li  Li55  1  0.13190637  0.62032247  0.60047816  1
  N  N56  1  0.25730818  0.24269182  0.75730818  1
  N  N57  1  0.24269182  0.75730818  0.25730818  1
  N  N58  1  0.75730818  0.25730818  0.24269182  1
  N  N59  1  0.74269182  0.74269182  0.74269182  1
  N  N60  1  0.74269182  0.75730818  0.24269182  1
  N  N61  1  0.75730818  0.24269182  0.74269182  1
  N  N62  1  0.24269182  0.74269182  0.75730818  1
  N  N63  1  0.25730818  0.25730818  0.25730818  1
  N  N64  1  0.75537346  0.01366858  0.50960092  1
  N  N65  1  0.25537346  0.48633142  0.49039908  1
  N  N66  1  0.24462654  0.51366858  0.99039908  1
  N  N67  1  0.48633142  0.49039908  0.25537346  1
  N  N68  1  0.99039908  0.24462654  0.51366858  1
  N  N69  1  0.49039908  0.25537346  0.48633142  1
  N  N70  1  0.01366858  0.50960092  0.75537346  1
  N  N71  1  0.50960092  0.75537346  0.01366858  1
  N  N72  1  0.51366858  0.99039908  0.24462654  1
  N  N73  1  0.98633142  0.00960092  0.74462654  1
  N  N74  1  0.00960092  0.74462654  0.98633142  1
  N  N75  1  0.74462654  0.98633142  0.00960092  1
  N  N76  1  0.24462654  0.98633142  0.49039908  1
  N  N77  1  0.74462654  0.51366858  0.50960092  1
  N  N78  1  0.75537346  0.48633142  0.00960092  1
  N  N79  1  0.51366858  0.50960092  0.74462654  1
  N  N80  1  0.00960092  0.75537346  0.48633142  1
  N  N81  1  0.50960092  0.74462654  0.51366858  1
  N  N82  1  0.98633142  0.49039908  0.24462654  1
  N  N83  1  0.49039908  0.24462654  0.98633142  1
  N  N84  1  0.48633142  0.00960092  0.75537346  1
  N  N85  1  0.01366858  0.99039908  0.25537346  1
  N  N86  1  0.99039908  0.25537346  0.01366858  1
  N  N87  1  0.25537346  0.01366858  0.99039908  1
  Nb  Nb88  1  0.37246140  0.12753860  0.87246140  1
  Nb  Nb89  1  0.12753860  0.87246140  0.37246140  1
  Nb  Nb90  1  0.87246140  0.37246140  0.12753860  1
  Nb  Nb91  1  0.62753860  0.62753860  0.62753860  1
  Nb  Nb92  1  0.62753860  0.87246140  0.12753860  1
  Nb  Nb93  1  0.87246140  0.12753860  0.62753860  1
  Nb  Nb94  1  0.12753860  0.62753860  0.87246140  1
  Nb  Nb95  1  0.37246140  0.37246140  0.37246140  1
