# generated using pymatgen
data_K6CoS4
_symmetry_space_group_name_H-M   'P 1'
_cell_length_a   9.80833795
_cell_length_b   9.80833795
_cell_length_c   7.71733085
_cell_angle_alpha   90.00000000
_cell_angle_beta   90.00000000
_cell_angle_gamma   120.00000004
_symmetry_Int_Tables_number   1
_chemical_formula_structural   K6CoS4
_chemical_formula_sum   'K12 Co2 S8'
_cell_volume   642.96686634
_cell_formula_units_Z   2
loop_
 _symmetry_equiv_pos_site_id
 _symmetry_equiv_pos_as_xyz
  1  'x, y, z'
loop_
 _atom_site_type_symbol
 _atom_site_label
 _atom_site_symmetry_multiplicity
 _atom_site_fract_x
 _atom_site_fract_y
 _atom_site_fract_z
 _atom_site_occupancy
  S  S0  1  0.79961626  0.20038374  0.65611045  1
  S  S1  1  0.59923251  0.79961626  0.15611045  1
  S  S2  1  0.20038374  0.40076749  0.15611045  1
  S  S3  1  0.79961626  0.59923251  0.65611045  1
  S  S4  1  0.40076749  0.20038374  0.65611045  1
  S  S5  1  0.20038374  0.79961626  0.15611045  1
  S  S6  1  0.66666667  0.33333333  0.05954970  1
  S  S7  1  0.33333333  0.66666667  0.55954970  1
  K  K8  1  0.52934462  0.05868924  0.36640700  1
  K  K9  1  0.47065538  0.52934462  0.86640700  1
  K  K10  1  0.94131076  0.47065538  0.36640700  1
  K  K11  1  0.52934462  0.47065538  0.36640700  1
  K  K12  1  0.14661760  0.85338240  0.54243467  1
  K  K13  1  0.29323520  0.14661760  0.04243467  1
  K  K14  1  0.05868924  0.52934462  0.86640700  1
  K  K15  1  0.85338240  0.70676480  0.04243467  1
  K  K16  1  0.85338240  0.14661760  0.04243467  1
  K  K17  1  0.70676480  0.85338240  0.54243467  1
  K  K18  1  0.14661760  0.29323520  0.54243467  1
  K  K19  1  0.47065538  0.94131076  0.86640700  1
  Co  Co20  1  0.66666667  0.33333333  0.75269391  1
  Co  Co21  1  0.33333333  0.66666667  0.25269391  1
