# generated using pymatgen
data_Rb2NiO2
_symmetry_space_group_name_H-M   'P 1'
_cell_length_a   4.20171249
_cell_length_b   4.20171249
_cell_length_c   7.31919676
_cell_angle_alpha   106.68045201
_cell_angle_beta   106.68045202
_cell_angle_gamma   89.99999997
_symmetry_Int_Tables_number   1
_chemical_formula_structural   Rb2NiO2
_chemical_formula_sum   'Rb2 Ni1 O2'
_cell_volume   118.09115879
_cell_formula_units_Z   1
loop_
 _symmetry_equiv_pos_site_id
 _symmetry_equiv_pos_as_xyz
  1  'x, y, z'
loop_
 _atom_site_type_symbol
 _atom_site_label
 _atom_site_symmetry_multiplicity
 _atom_site_fract_x
 _atom_site_fract_y
 _atom_site_fract_z
 _atom_site_occupancy
  O  O0  1  0.87147767  0.87147709  0.74295394  1
  O  O1  1  0.12852321  0.12852438  0.25704614  1
  Ni  Ni2  1  0.00000000  0.00000000  0.00000000  1
  Rb  Rb3  1  0.34341352  0.34341489  0.68682859  1
  Rb  Rb4  1  0.65658490  0.65658659  0.31317245  1
