# generated using pymatgen
data_SiO2
_symmetry_space_group_name_H-M   'P 1'
_cell_length_a   5.15817130
_cell_length_b   5.33838426
_cell_length_c   7.01993944
_cell_angle_alpha   71.03241710
_cell_angle_beta   73.80908702
_cell_angle_gamma   84.32485333
_symmetry_Int_Tables_number   1
_chemical_formula_structural   SiO2
_chemical_formula_sum   'Si4 O8'
_cell_volume   175.54953518
_cell_formula_units_Z   4
loop_
 _symmetry_equiv_pos_site_id
 _symmetry_equiv_pos_as_xyz
  1  'x, y, z'
loop_
 _atom_site_type_symbol
 _atom_site_label
 _atom_site_symmetry_multiplicity
 _atom_site_fract_x
 _atom_site_fract_y
 _atom_site_fract_z
 _atom_site_occupancy
  Si  Si0  1  0.38666920  0.71943780  0.59321721  1
  Si  Si1  1  0.43924251  0.63026118  0.04818082  1
  Si  Si2  1  0.18258082  0.28248164  0.44658314  1
  Si  Si3  1  0.86228895  0.69064220  0.24243239  1
  O  O4  1  0.45847794  0.62300989  0.81700935  1
  O  O5  1  0.17645202  0.97157757  0.58239318  1
  O  O6  1  0.25212076  0.46816166  0.57235367  1
  O  O7  1  0.72394773  0.73687621  0.04995700  1
  O  O8  1  0.66244330  0.82601215  0.40736789  1
  O  O9  1  0.17214229  0.80639166  0.13089025  1
  O  O10  1  0.89382914  0.38097152  0.38829224  1
  O  O11  1  0.40425534  0.33263654  0.21864285  1
