# generated using pymatgen
data_H8W3Se(NO6)2
_symmetry_space_group_name_H-M   'P 1'
_cell_length_a   7.34753615
_cell_length_b   7.34753615
_cell_length_c   12.59430194
_cell_angle_alpha   90.00000000
_cell_angle_beta   90.00000000
_cell_angle_gamma   120.00000000
_symmetry_Int_Tables_number   1
_chemical_formula_structural   H8W3Se(NO6)2
_chemical_formula_sum   'H16 W6 Se2 N4 O24'
_cell_volume   588.82765089
_cell_formula_units_Z   2
loop_
 _symmetry_equiv_pos_site_id
 _symmetry_equiv_pos_as_xyz
  1  'x, y, z'
loop_
 _atom_site_type_symbol
 _atom_site_label
 _atom_site_symmetry_multiplicity
 _atom_site_fract_x
 _atom_site_fract_y
 _atom_site_fract_z
 _atom_site_occupancy
  H  H0  1  0.66666667  0.33333333  0.15156389  1
  H  H1  1  0.25501367  0.51166637  0.15029213  1
  H  H2  1  0.74334730  0.25501367  0.65029213  1
  H  H3  1  0.51166637  0.25665270  0.65029213  1
  H  H4  1  0.33333333  0.66666667  0.65156389  1
  H  H5  1  0.66666667  0.33333333  0.54129033  1
  H  H6  1  0.33333333  0.66666667  0.04129033  1
  H  H7  1  0.40079401  0.81931296  0.76221612  1
  H  H8  1  0.58148105  0.40079401  0.26221612  1
  H  H9  1  0.48833363  0.74334730  0.15029213  1
  H  H10  1  0.81931296  0.41851895  0.26221612  1
  H  H11  1  0.41851895  0.59920599  0.76221612  1
  H  H12  1  0.59920599  0.18068704  0.26221612  1
  H  H13  1  0.74498633  0.48833363  0.65029213  1
  H  H14  1  0.25665270  0.74498633  0.15029213  1
  H  H15  1  0.18068704  0.58148105  0.76221612  1
  N  N16  1  0.66666667  0.33333333  0.23389247  1
  N  N17  1  0.33333333  0.66666667  0.73389247  1
  N  N18  1  0.66666667  0.33333333  0.62265306  1
  N  N19  1  0.33333333  0.66666667  0.12265306  1
  O  O20  1  0.79189955  0.19658984  0.02985246  1
  O  O21  1  0.20810045  0.80341016  0.52985246  1
  O  O22  1  0.80341016  0.59530970  0.02985246  1
  O  O23  1  0.59530970  0.79189955  0.52985246  1
  O  O24  1  0.54003315  0.08462185  0.84820380  1
  O  O25  1  0.45541129  0.54003315  0.34820380  1
  O  O26  1  0.40469030  0.20810045  0.02985246  1
  O  O27  1  0.91537815  0.45541129  0.84820380  1
  O  O28  1  0.54458871  0.45996685  0.84820380  1
  O  O29  1  0.45996685  0.91537815  0.34820380  1
  O  O30  1  0.24909650  0.12870227  0.72381531  1
  O  O31  1  0.12039423  0.24909650  0.22381531  1
  O  O32  1  0.12870227  0.87960577  0.22381531  1
  O  O33  1  0.87129773  0.12039423  0.72381531  1
  O  O34  1  0.87960577  0.75090350  0.72381531  1
  O  O35  1  0.75090350  0.87129773  0.22381531  1
  O  O36  1  0.08462185  0.54458871  0.34820380  1
  O  O37  1  0.87340323  0.12196798  0.40427198  1
  O  O38  1  0.75143524  0.87340323  0.90427198  1
  O  O39  1  0.12196798  0.24856476  0.90427198  1
  O  O40  1  0.87803202  0.75143524  0.40427198  1
  O  O41  1  0.24856476  0.12659677  0.40427198  1
  O  O42  1  0.12659677  0.87803202  0.90427198  1
  O  O43  1  0.19658984  0.40469030  0.52985246  1
  Se  Se44  1  0.00000000  0.00000000  0.66511620  1
  Se  Se45  1  0.00000000  0.00000000  0.16511620  1
  W  W46  1  0.66109175  0.82577126  0.39404288  1
  W  W47  1  0.82577126  0.16467951  0.89404288  1
  W  W48  1  0.83532049  0.66109175  0.89404288  1
  W  W49  1  0.16467951  0.33890825  0.39404288  1
  W  W50  1  0.33890825  0.17422874  0.89404288  1
  W  W51  1  0.17422874  0.83532049  0.39404288  1
