# generated using pymatgen
data_Li5MnOF5
_symmetry_space_group_name_H-M   'P 1'
_cell_length_a   3.29727269
_cell_length_b   3.29885809
_cell_length_c   14.92510462
_cell_angle_alpha   89.99999852
_cell_angle_beta   90.01296327
_cell_angle_gamma   120.01589734
_symmetry_Int_Tables_number   1
_chemical_formula_structural   Li5MnOF5
_chemical_formula_sum   'Li5 Mn1 O1 F5'
_cell_volume   140.57137968
_cell_formula_units_Z   1
loop_
 _symmetry_equiv_pos_site_id
 _symmetry_equiv_pos_as_xyz
  1  'x, y, z'
loop_
 _atom_site_type_symbol
 _atom_site_label
 _atom_site_symmetry_multiplicity
 _atom_site_fract_x
 _atom_site_fract_y
 _atom_site_fract_z
 _atom_site_occupancy
  Li  Li0  1  0.33360268  0.66685134  0.33742617  1
  Li  Li1  1  0.33360884  0.66685442  0.65996677  1
  Li  Li2  1  0.66660513  0.33335207  0.17745456  1
  Li  Li3  1  0.66667933  0.33338966  0.49885059  1
  Li  Li4  1  0.66658028  0.33334014  0.82078958  1
  Mn  Mn5  1  0.33308569  0.66659235  0.99132583  1
  O  O6  1  0.66606017  0.33307958  0.95390524  1
  F  F7  1  0.33344835  0.66677467  0.46471246  1
  F  F8  1  0.33341040  0.66675570  0.14468158  1
  F  F9  1  0.33340424  0.66675162  0.78650670  1
  F  F10  1  0.66673759  0.33341880  0.30406371  1
  F  F11  1  0.66677929  0.33343965  0.62631581  1
