# generated using pymatgen
data_SrBPO5
_symmetry_space_group_name_H-M   'P 1'
_cell_length_a   6.93536427
_cell_length_b   6.93536436
_cell_length_c   6.89567706
_cell_angle_alpha   90.00000000
_cell_angle_beta   90.00000000
_cell_angle_gamma   119.99999963
_symmetry_Int_Tables_number   1
_chemical_formula_structural   SrBPO5
_chemical_formula_sum   'Sr3 B3 P3 O15'
_cell_volume   287.24078601
_cell_formula_units_Z   3
loop_
 _symmetry_equiv_pos_site_id
 _symmetry_equiv_pos_as_xyz
  1  'x, y, z'
loop_
 _atom_site_type_symbol
 _atom_site_label
 _atom_site_symmetry_multiplicity
 _atom_site_fract_x
 _atom_site_fract_y
 _atom_site_fract_z
 _atom_site_occupancy
  Sr  Sr0  1  1.00000000  0.39410979  0.83333300  1
  Sr  Sr1  1  0.39410979  0.00000000  0.16666700  1
  Sr  Sr2  1  0.60589021  0.60589021  0.50000000  1
  B  B3  1  0.09846914  0.09846914  0.50000000  1
  B  B4  1  0.00000000  0.90153086  0.83333300  1
  B  B5  1  0.90153086  0.00000000  0.16666700  1
  P  P6  1  0.59551207  0.59551207  0.00000000  1
  P  P7  1  0.40448793  0.00000000  0.66666700  1
  P  P8  1  0.00000000  0.40448793  0.33333300  1
  O  O9  1  0.95683283  0.00000000  0.66666700  1
  O  O10  1  0.86201006  0.44883628  0.47758590  1
  O  O11  1  0.04316717  0.04316717  0.00000000  1
  O  O12  1  0.85073984  0.18753701  0.20476158  1
  O  O13  1  0.81246299  0.66320283  0.87142858  1
  O  O14  1  0.33679717  0.14926016  0.53809558  1
  O  O15  1  0.41317378  0.55116372  0.85574710  1
  O  O16  1  0.58682622  0.13798994  0.81091990  1
  O  O17  1  0.18753701  0.85073984  0.79523842  1
  O  O18  1  0.66320283  0.81246299  0.12857142  1
  O  O19  1  0.55116372  0.41317378  0.14425290  1
  O  O20  1  0.44883628  0.86201006  0.52241410  1
  O  O21  1  0.00000000  0.95683283  0.33333300  1
  O  O22  1  0.13798994  0.58682622  0.18908010  1
  O  O23  1  0.14926016  0.33679717  0.46190442  1
