# generated using pymatgen
data_SiO2
_symmetry_space_group_name_H-M   'P 1'
_cell_length_a   5.11229872
_cell_length_b   5.11229847
_cell_length_c   8.62959079
_cell_angle_alpha   90.00000000
_cell_angle_beta   90.00000000
_cell_angle_gamma   120.00000159
_symmetry_Int_Tables_number   1
_chemical_formula_structural   SiO2
_chemical_formula_sum   'Si4 O8'
_cell_volume   195.32293925
_cell_formula_units_Z   4
loop_
 _symmetry_equiv_pos_site_id
 _symmetry_equiv_pos_as_xyz
  1  'x, y, z'
loop_
 _atom_site_type_symbol
 _atom_site_label
 _atom_site_symmetry_multiplicity
 _atom_site_fract_x
 _atom_site_fract_y
 _atom_site_fract_z
 _atom_site_occupancy
  Si  Si0  1  0.66666700  0.33333300  0.93721695  1
  Si  Si1  1  0.66666700  0.33333300  0.56278305  1
  Si  Si2  1  0.33333300  0.66666700  0.06278305  1
  Si  Si3  1  0.33333300  0.66666700  0.43721695  1
  O  O4  1  0.00000000  0.42064725  0.00000000  1
  O  O5  1  0.42064725  0.42064725  0.50000000  1
  O  O6  1  0.57935275  0.00000000  0.50000000  1
  O  O7  1  0.57935275  0.57935275  0.00000000  1
  O  O8  1  1.00000000  0.57935275  0.50000000  1
  O  O9  1  0.66666700  0.33333300  0.75000000  1
  O  O10  1  0.33333300  0.66666700  0.25000000  1
  O  O11  1  0.42064725  0.00000000  0.00000000  1
