# generated using pymatgen
data_InSnCl3
_symmetry_space_group_name_H-M   'P 1'
_cell_length_a   5.65279131
_cell_length_b   5.68625536
_cell_length_c   5.77651386
_cell_angle_alpha   88.33517224
_cell_angle_beta   88.94379281
_cell_angle_gamma   88.79569646
_symmetry_Int_Tables_number   1
_chemical_formula_structural   InSnCl3
_chemical_formula_sum   'In1 Sn1 Cl3'
_cell_volume   185.52684136
_cell_formula_units_Z   1
loop_
 _symmetry_equiv_pos_site_id
 _symmetry_equiv_pos_as_xyz
  1  'x, y, z'
loop_
 _atom_site_type_symbol
 _atom_site_label
 _atom_site_symmetry_multiplicity
 _atom_site_fract_x
 _atom_site_fract_y
 _atom_site_fract_z
 _atom_site_occupancy
  In  In0  1  0.09187524  0.08889898  0.91956352  1
  Sn  Sn1  1  0.49461405  0.48532938  0.53083919  1
  Cl  Cl2  1  0.46887738  0.00774972  0.55925310  1
  Cl  Cl3  1  0.45908103  0.45449085  0.98815665  1
  Cl  Cl4  1  0.99555231  0.46353307  0.56218753  1
