# generated using pymatgen
data_K3TiO4F3
_symmetry_space_group_name_H-M   'P 1'
_cell_length_a   6.35240147
_cell_length_b   6.35240147
_cell_length_c   8.97673771
_cell_angle_alpha   90.00000000
_cell_angle_beta   90.00000000
_cell_angle_gamma   97.23223639
_symmetry_Int_Tables_number   1
_chemical_formula_structural   K3TiO4F3
_chemical_formula_sum   'K6 Ti2 O8 F6'
_cell_volume   359.35637872
_cell_formula_units_Z   2
loop_
 _symmetry_equiv_pos_site_id
 _symmetry_equiv_pos_as_xyz
  1  'x, y, z'
loop_
 _atom_site_type_symbol
 _atom_site_label
 _atom_site_symmetry_multiplicity
 _atom_site_fract_x
 _atom_site_fract_y
 _atom_site_fract_z
 _atom_site_occupancy
  O  O0  1  0.05186744  0.46989897  0.24965225  1
  O  O1  1  0.94813256  0.53010103  0.74965225  1
  O  O2  1  0.53010103  0.94813256  0.74965225  1
  O  O3  1  0.46989897  0.05186744  0.24965225  1
  O  O4  1  0.27768990  0.56473107  0.24992333  1
  O  O5  1  0.72231010  0.43526893  0.74992333  1
  O  O6  1  0.43526893  0.72231010  0.74992333  1
  O  O7  1  0.56473107  0.27768990  0.24992333  1
  F  F8  1  0.01973885  0.01973885  0.24932549  1
  F  F9  1  0.98026115  0.98026115  0.74932549  1
  F  F10  1  0.23786263  0.23786263  0.03162980  1
  F  F11  1  0.76213737  0.76213737  0.53162980  1
  F  F12  1  0.23707963  0.23707963  0.46766183  1
  F  F13  1  0.76292037  0.76292037  0.96766183  1
  K  K14  1  0.70246893  0.70246893  0.24961295  1
  K  K15  1  0.29753107  0.29753107  0.74961295  1
  K  K16  1  0.79815792  0.20208306  0.99991280  1
  K  K17  1  0.20184208  0.79791694  0.49991280  1
  K  K18  1  0.79791694  0.20184208  0.49991280  1
  K  K19  1  0.20208306  0.79815792  0.99991280  1
  Ti  Ti20  1  0.74066116  0.74066116  0.74969315  1
  Ti  Ti21  1  0.25933884  0.25933884  0.24969315  1
