# generated using pymatgen
data_Al5BO9
_symmetry_space_group_name_H-M   'P 1'
_cell_length_a   5.73087865
_cell_length_b   7.76573751
_cell_length_c   8.10210966
_cell_angle_alpha   90.00000000
_cell_angle_beta   110.71169828
_cell_angle_gamma   90.00000000
_symmetry_Int_Tables_number   1
_chemical_formula_structural   Al5BO9
_chemical_formula_sum   'Al10 B2 O18'
_cell_volume   337.27669074
_cell_formula_units_Z   2
loop_
 _symmetry_equiv_pos_site_id
 _symmetry_equiv_pos_as_xyz
  1  'x, y, z'
loop_
 _atom_site_type_symbol
 _atom_site_label
 _atom_site_symmetry_multiplicity
 _atom_site_fract_x
 _atom_site_fract_y
 _atom_site_fract_z
 _atom_site_occupancy
  B  B0  1  0.98435621  0.72082169  0.96871242  1
  B  B1  1  0.01564379  0.22082169  0.03128758  1
  O  O2  1  0.19106042  0.43588124  0.38212083  1
  O  O3  1  0.95361342  0.09306632  0.90722685  1
  O  O4  1  0.04638658  0.59306632  0.09277315  1
  O  O5  1  0.45464446  0.07177972  0.90928892  1
  O  O6  1  0.54535554  0.57177972  0.09071108  1
  O  O7  1  0.66930857  0.36819549  0.33861714  1
  O  O8  1  0.33069143  0.86819549  0.66138286  1
  O  O9  1  0.83822085  0.28483587  0.09620164  1
  O  O10  1  0.80893958  0.93588124  0.61787917  1
  O  O11  1  0.64828061  0.03723889  0.29656122  1
  O  O12  1  0.74201921  0.78483587  0.90379836  1
  O  O13  1  0.25798079  0.28483587  0.09620164  1
  O  O14  1  0.16177915  0.78483587  0.90379836  1
  O  O15  1  0.44752667  0.70040120  0.38050609  1
  O  O16  1  0.06702058  0.20040120  0.61949391  1
  O  O17  1  0.55247333  0.20040120  0.61949391  1
  O  O18  1  0.93297942  0.70040120  0.38050609  1
  O  O19  1  0.35171939  0.53723889  0.70343878  1
  Al  Al20  1  0.36792553  0.49978045  0.23179353  1
  Al  Al21  1  0.29659399  0.33366601  0.59318798  1
  Al  Al22  1  0.70340601  0.83366601  0.40681202  1
  Al  Al23  1  0.55645677  0.18318518  0.11291355  1
  Al  Al24  1  0.44354323  0.68318518  0.88708645  1
  Al  Al25  1  0.74461465  0.18493042  0.48922930  1
  Al  Al26  1  0.25538535  0.68493042  0.51077070  1
  Al  Al27  1  0.13613200  0.99978045  0.76820647  1
  Al  Al28  1  0.86386800  0.49978045  0.23179353  1
  Al  Al29  1  0.63207447  0.99978045  0.76820647  1
