# generated using pymatgen
data_CoH8(BrO2)2
_symmetry_space_group_name_H-M   'P 1'
_cell_length_a   6.12238731
_cell_length_b   7.59581845
_cell_length_c   8.65241415
_cell_angle_alpha   90.00000000
_cell_angle_beta   110.27817929
_cell_angle_gamma   90.00000000
_symmetry_Int_Tables_number   1
_chemical_formula_structural   CoH8(BrO2)2
_chemical_formula_sum   'Co2 H16 Br4 O8'
_cell_volume   377.43766223
_cell_formula_units_Z   2
loop_
 _symmetry_equiv_pos_site_id
 _symmetry_equiv_pos_as_xyz
  1  'x, y, z'
loop_
 _atom_site_type_symbol
 _atom_site_label
 _atom_site_symmetry_multiplicity
 _atom_site_fract_x
 _atom_site_fract_y
 _atom_site_fract_z
 _atom_site_occupancy
  H  H0  1  0.36882144  0.29831049  0.49663833  1
  H  H1  1  0.63117856  0.79831049  0.00336167  1
  H  H2  1  0.63117856  0.70168951  0.50336167  1
  H  H3  1  0.36882144  0.20168951  0.99663833  1
  H  H4  1  0.38347341  0.31771599  0.67945610  1
  H  H5  1  0.61652659  0.81771599  0.82054390  1
  H  H6  1  0.61652659  0.68228401  0.32054390  1
  H  H7  1  0.38347341  0.18228401  0.17945610  1
  H  H8  1  0.89068786  0.42898593  0.16723733  1
  H  H9  1  0.10931214  0.92898593  0.33276267  1
  H  H10  1  0.10931214  0.57101407  0.83276267  1
  H  H11  1  0.89068786  0.07101407  0.66723733  1
  H  H12  1  0.09600039  0.56864440  0.21490035  1
  H  H13  1  0.90399961  0.06864440  0.28509965  1
  H  H14  1  0.09600039  0.93135560  0.71490035  1
  H  H15  1  0.90399961  0.43135560  0.78509965  1
  O  O16  1  0.27154048  0.31619435  0.56543033  1
  O  O17  1  0.72845952  0.81619435  0.93456967  1
  O  O18  1  0.72845952  0.68380565  0.43456967  1
  O  O19  1  0.27154048  0.18380565  0.06543033  1
  O  O20  1  0.99164742  0.50202534  0.25859780  1
  O  O21  1  0.00835258  0.00202534  0.24140220  1
  O  O22  1  0.00835258  0.49797466  0.74140220  1
  O  O23  1  0.99164742  0.99797466  0.75859780  1
  Co  Co24  1  0.00000000  0.00000000  0.00000000  1
  Co  Co25  1  0.00000000  0.50000000  0.50000000  1
  Br  Br26  1  0.30128577  0.76989896  0.57580733  1
  Br  Br27  1  0.69871423  0.26989896  0.92419267  1
  Br  Br28  1  0.30128577  0.73010104  0.07580733  1
  Br  Br29  1  0.69871423  0.23010104  0.42419267  1
