# generated using pymatgen
data_KSrVO4
_symmetry_space_group_name_H-M   'P 1'
_cell_length_a   5.93148083
_cell_length_b   7.55570324
_cell_length_c   10.09797898
_cell_angle_alpha   90.00000000
_cell_angle_beta   90.00000000
_cell_angle_gamma   90.00000000
_symmetry_Int_Tables_number   1
_chemical_formula_structural   KSrVO4
_chemical_formula_sum   'K4 Sr4 V4 O16'
_cell_volume   452.55616508
_cell_formula_units_Z   4
loop_
 _symmetry_equiv_pos_site_id
 _symmetry_equiv_pos_as_xyz
  1  'x, y, z'
loop_
 _atom_site_type_symbol
 _atom_site_label
 _atom_site_symmetry_multiplicity
 _atom_site_fract_x
 _atom_site_fract_y
 _atom_site_fract_z
 _atom_site_occupancy
  K  K0  1  0.48445634  0.09088636  0.57722772  1
  K  K1  1  0.51554366  0.59088636  0.92277228  1
  K  K2  1  0.01554366  0.90911364  0.07722772  1
  K  K3  1  0.98445634  0.40911364  0.42277228  1
  Sr  Sr4  1  0.98082718  0.24986322  0.80081924  1
  Sr  Sr5  1  0.48082718  0.25013678  0.19918076  1
  Sr  Sr6  1  0.51917282  0.75013678  0.30081924  1
  Sr  Sr7  1  0.01917282  0.74986322  0.69918076  1
  V  V8  1  0.48532418  0.52525659  0.58373036  1
  V  V9  1  0.01467582  0.47474341  0.08373036  1
  V  V10  1  0.98532418  0.97474341  0.41626964  1
  V  V11  1  0.51467582  0.02525659  0.91626964  1
  O  O12  1  0.50621739  0.92990880  0.07416130  1
  O  O13  1  0.24479604  0.55554090  0.17261165  1
  O  O14  1  0.25520396  0.44445910  0.67261165  1
  O  O15  1  0.06464572  0.25122827  0.06214194  1
  O  O16  1  0.74479604  0.94445910  0.82738835  1
  O  O17  1  0.56464572  0.24877173  0.93785806  1
  O  O18  1  0.76234811  0.51668804  0.16883773  1
  O  O19  1  0.26234811  0.98331196  0.83116227  1
  O  O20  1  0.99378261  0.07009120  0.57416130  1
  O  O21  1  0.75520396  0.05554090  0.32738835  1
  O  O22  1  0.00621739  0.57009120  0.92583870  1
  O  O23  1  0.49378261  0.42990880  0.42583870  1
  O  O24  1  0.23765189  0.01668804  0.33116227  1
  O  O25  1  0.43535428  0.74877173  0.56214194  1
  O  O26  1  0.73765189  0.48331196  0.66883773  1
  O  O27  1  0.93535428  0.75122827  0.43785806  1
