# generated using pymatgen
data_K3V(SO5)2
_symmetry_space_group_name_H-M   'P 1'
_cell_length_a   7.39517048
_cell_length_b   7.53447557
_cell_length_c   10.23277028
_cell_angle_alpha   103.74137491
_cell_angle_beta   90.00000000
_cell_angle_gamma   90.00000000
_symmetry_Int_Tables_number   1
_chemical_formula_structural   K3V(SO5)2
_chemical_formula_sum   'K6 V2 S4 O20'
_cell_volume   553.83785283
_cell_formula_units_Z   2
loop_
 _symmetry_equiv_pos_site_id
 _symmetry_equiv_pos_as_xyz
  1  'x, y, z'
loop_
 _atom_site_type_symbol
 _atom_site_label
 _atom_site_symmetry_multiplicity
 _atom_site_fract_x
 _atom_site_fract_y
 _atom_site_fract_z
 _atom_site_occupancy
  K  K0  1  0.61150038  0.41814415  0.58933897  1
  K  K1  1  0.11150038  0.58185585  0.41066103  1
  K  K2  1  0.34224670  0.01295112  0.73019533  1
  K  K3  1  0.84224670  0.98704888  0.26980467  1
  K  K4  1  0.91583102  0.29023035  0.95098417  1
  K  K5  1  0.41583102  0.70976965  0.04901583  1
  V  V6  1  0.34391502  0.24615148  0.14682329  1
  V  V7  1  0.84391502  0.75384852  0.85317671  1
  S  S8  1  0.31528097  0.04912494  0.34347631  1
  S  S9  1  0.81528097  0.95087506  0.65652369  1
  S  S10  1  0.65129172  0.46333173  0.25372173  1
  S  S11  1  0.15129172  0.53666827  0.74627827  1
  O  O12  1  0.58985932  0.32775587  0.11917151  1
  O  O13  1  0.08985932  0.67224413  0.88082849  1
  O  O14  1  0.48779936  0.47811007  0.34072173  1
  O  O15  1  0.98779936  0.52188993  0.65927827  1
  O  O16  1  0.48016122  0.05233290  0.25722820  1
  O  O17  1  0.98016122  0.94766710  0.74277180  1
  O  O18  1  0.19151550  0.18705969  0.29290182  1
  O  O19  1  0.69151550  0.81294031  0.70709818  1
  O  O20  1  0.35292410  0.11818156  0.48643998  1
  O  O21  1  0.85292410  0.88181844  0.51356002  1
  O  O22  1  0.81361922  0.91945304  0.99024862  1
  O  O23  1  0.31361922  0.08054696  0.00975138  1
  O  O24  1  0.80282455  0.37723610  0.30858803  1
  O  O25  1  0.30282455  0.62276390  0.69141197  1
  O  O26  1  0.70214275  0.63361066  0.21821745  1
  O  O27  1  0.20214275  0.36638934  0.78178255  1
  O  O28  1  0.22547975  0.87077483  0.31010972  1
  O  O29  1  0.72547975  0.12922517  0.68989028  1
  O  O30  1  0.21210841  0.41925473  0.13043615  1
  O  O31  1  0.71210841  0.58074527  0.86956385  1
