# generated using pymatgen
data_LiMnPO4
_symmetry_space_group_name_H-M   'P 1'
_cell_length_a   10.32139365
_cell_length_b   6.95051080
_cell_length_c   5.12656511
_cell_angle_alpha   90.00000000
_cell_angle_beta   90.00000000
_cell_angle_gamma   90.00000000
_symmetry_Int_Tables_number   1
_chemical_formula_structural   LiMnPO4
_chemical_formula_sum   'Li4 Mn4 P4 O16'
_cell_volume   367.77443929
_cell_formula_units_Z   4
loop_
 _symmetry_equiv_pos_site_id
 _symmetry_equiv_pos_as_xyz
  1  'x, y, z'
loop_
 _atom_site_type_symbol
 _atom_site_label
 _atom_site_symmetry_multiplicity
 _atom_site_fract_x
 _atom_site_fract_y
 _atom_site_fract_z
 _atom_site_occupancy
  Li  Li0  1  0.15176223  0.21332246  0.68888672  1
  Li  Li1  1  0.34823760  0.71332239  0.18888616  1
  Li  Li2  1  0.65176302  0.21332246  0.81111300  1
  Li  Li3  1  0.84823742  0.71332239  0.31111440  1
  O  O4  1  0.11714361  0.96989412  0.88582409  1
  O  O5  1  0.88285701  0.46989419  0.11417507  1
  O  O6  1  0.84276766  0.64645089  0.69003480  1
  O  O7  1  0.83663080  0.27881438  0.70699145  1
  O  O8  1  0.05069219  0.45737792  0.74405992  1
  O  O9  1  0.94930746  0.95737786  0.25593924  1
  O  O10  1  0.15723198  0.14645096  0.30996436  1
  O  O11  1  0.16336982  0.77881431  0.29300771  1
  O  O12  1  0.33663001  0.27881438  0.79300827  1
  O  O13  1  0.34276784  0.64645089  0.80996491  1
  O  O14  1  0.66336964  0.77881431  0.20699285  1
  O  O15  1  0.44930764  0.95737786  0.24406132  1
  O  O16  1  0.55069201  0.45737792  0.75593980  1
  O  O17  1  0.61714343  0.96989412  0.61417563  1
  O  O18  1  0.65723181  0.14645096  0.19003620  1
  O  O19  1  0.38285718  0.46989419  0.38582353  1
  P  P20  1  0.90428517  0.46325338  0.81368652  1
  P  P21  1  0.59571430  0.96325331  0.31368596  1
  P  P22  1  0.40428535  0.46325338  0.68631320  1
  P  P23  1  0.09571447  0.96325331  0.18631264  1
  Mn  Mn24  1  0.15305839  0.71271368  0.68981363  1
  Mn  Mn25  1  0.34694143  0.21271374  0.18981308  1
  Mn  Mn26  1  0.65305821  0.71271368  0.81018608  1
  Mn  Mn27  1  0.84694126  0.21271374  0.31018553  1
