# generated using pymatgen
data_Li3Y3ZrO8
_symmetry_space_group_name_H-M   'P 1'
_cell_length_a   6.18796728
_cell_length_b   6.18796728
_cell_length_c   12.32445996
_cell_angle_alpha   138.56449932
_cell_angle_beta   138.56449932
_cell_angle_gamma   60.45111566
_symmetry_Int_Tables_number   1
_chemical_formula_structural   Li3Y3ZrO8
_chemical_formula_sum   'Li3 Y3 Zr1 O8'
_cell_volume   204.10169957
_cell_formula_units_Z   1
loop_
 _symmetry_equiv_pos_site_id
 _symmetry_equiv_pos_as_xyz
  1  'x, y, z'
loop_
 _atom_site_type_symbol
 _atom_site_label
 _atom_site_symmetry_multiplicity
 _atom_site_fract_x
 _atom_site_fract_y
 _atom_site_fract_z
 _atom_site_occupancy
  Li  Li0  1  0.25674700  0.75674700  0.25674700  1
  Li  Li1  1  0.50000000  0.50000000  0.50000000  1
  Li  Li2  1  0.24325300  0.74325300  0.74325300  1
  Y  Y3  1  0.74702868  0.24702868  0.24702868  1
  Y  Y4  1  0.00000000  0.00000000  0.50000000  1
  Y  Y5  1  0.75297132  0.25297132  0.75297132  1
  Zr  Zr6  1  0.00000000  0.00000000  0.00000000  1
  O  O7  1  0.00104702  0.45112186  0.25727454  1
  O  O8  1  0.51350206  0.06342722  0.25727454  1
  O  O9  1  0.20450250  0.20450250  0.00000000  1
  O  O10  1  0.79549750  0.79549750  0.00000000  1
  O  O11  1  0.21411518  0.21411518  0.50000000  1
  O  O12  1  0.78588482  0.78588482  0.50000000  1
  O  O13  1  0.54887814  0.99895298  0.74272546  1
  O  O14  1  0.93657278  0.48649794  0.74272546  1
