# generated using pymatgen
data_SbO2
_symmetry_space_group_name_H-M   'P 1'
_cell_length_a   4.92481459
_cell_length_b   5.51001794
_cell_length_c   6.57781861
_cell_angle_alpha   102.58363256
_cell_angle_beta   111.98415295
_cell_angle_gamma   90.00000001
_symmetry_Int_Tables_number   1
_chemical_formula_structural   SbO2
_chemical_formula_sum   'Sb4 O8'
_cell_volume   160.88255769
_cell_formula_units_Z   4
loop_
 _symmetry_equiv_pos_site_id
 _symmetry_equiv_pos_as_xyz
  1  'x, y, z'
loop_
 _atom_site_type_symbol
 _atom_site_label
 _atom_site_symmetry_multiplicity
 _atom_site_fract_x
 _atom_site_fract_y
 _atom_site_fract_z
 _atom_site_occupancy
  O  O0  1  0.49149092  0.53360996  0.81197592  1
  O  O1  1  0.67951500  0.96639004  0.18802408  1
  O  O2  1  0.50850908  0.46639004  0.18802408  1
  O  O3  1  0.32048500  0.03360996  0.81197592  1
  O  O4  1  0.85062033  0.31377391  0.62299809  1
  O  O5  1  0.22762224  0.18622609  0.37700191  1
  O  O6  1  0.14937967  0.68622609  0.37700191  1
  O  O7  1  0.77237776  0.81377391  0.62299809  1
  Sb  Sb8  1  0.71353508  0.25000000  0.00000000  1
  Sb  Sb9  1  0.28646492  0.75000000  0.00000000  1
  Sb  Sb10  1  0.50000000  0.50000000  0.50000000  1
  Sb  Sb11  1  0.00000000  0.00000000  0.50000000  1
