# generated using pymatgen
data_Li6Br3N
_symmetry_space_group_name_H-M   'P 1'
_cell_length_a   6.38527557
_cell_length_b   6.33003263
_cell_length_c   6.38934460
_cell_angle_alpha   60.26420571
_cell_angle_beta   59.40758986
_cell_angle_gamma   60.52899486
_symmetry_Int_Tables_number   1
_chemical_formula_structural   Li6Br3N
_chemical_formula_sum   'Li6 Br3 N1'
_cell_volume   182.84997344
_cell_formula_units_Z   1
loop_
 _symmetry_equiv_pos_site_id
 _symmetry_equiv_pos_as_xyz
  1  'x, y, z'
loop_
 _atom_site_type_symbol
 _atom_site_label
 _atom_site_symmetry_multiplicity
 _atom_site_fract_x
 _atom_site_fract_y
 _atom_site_fract_z
 _atom_site_occupancy
  Li  Li0  1  0.29586050  0.70413950  0.13465701  1
  Li  Li1  1  0.24698823  0.18392133  0.81870850  1
  Li  Li2  1  0.13858709  0.86141291  0.73413821  1
  Li  Li3  1  0.88781653  0.11218347  0.29453143  1
  Li  Li4  1  0.74059640  0.25940360  0.89335443  1
  Li  Li5  1  0.81607867  0.75301177  0.24961806  1
  Br  Br6  1  0.25067717  0.24963072  0.25034577  1
  Br  Br7  1  0.50143851  0.49856149  0.50202141  1
  Br  Br8  1  0.75036928  0.74932283  0.75065366  1
  N  N9  1  0.01378762  0.98621238  0.01417152  1
