# generated using pymatgen
data_LiFePO4
_symmetry_space_group_name_H-M   'P 1'
_cell_length_a   8.58488224
_cell_length_b   5.42025593
_cell_length_c   8.01443166
_cell_angle_alpha   90.00000000
_cell_angle_beta   103.73697300
_cell_angle_gamma   90.00000000
_symmetry_Int_Tables_number   1
_chemical_formula_structural   LiFePO4
_chemical_formula_sum   'Li4 Fe4 P4 O16'
_cell_volume   362.26236226
_cell_formula_units_Z   4
loop_
 _symmetry_equiv_pos_site_id
 _symmetry_equiv_pos_as_xyz
  1  'x, y, z'
loop_
 _atom_site_type_symbol
 _atom_site_label
 _atom_site_symmetry_multiplicity
 _atom_site_fract_x
 _atom_site_fract_y
 _atom_site_fract_z
 _atom_site_occupancy
  Li  Li0  1  0.56923218  0.14693124  0.96654157  1
  Li  Li1  1  0.78533664  0.66408739  0.50536424  1
  Li  Li2  1  0.06923218  0.85306876  0.96654157  1
  Li  Li3  1  0.28533664  0.33591261  0.50536424  1
  Fe  Fe4  1  0.70344240  0.66047800  0.86929357  1
  Fe  Fe5  1  0.88708510  0.17462526  0.35669569  1
  Fe  Fe6  1  0.38708510  0.82537474  0.35669569  1
  Fe  Fe7  1  0.20344240  0.33952200  0.86929357  1
  P  P8  1  0.33002329  0.83165191  0.74145912  1
  P  P9  1  0.01016820  0.67343124  0.24691826  1
  P  P10  1  0.83002329  0.16834809  0.74145912  1
  P  P11  1  0.51016820  0.32656876  0.24691826  1
  O  O12  1  0.20402632  0.70804256  0.82640946  1
  O  O13  1  0.49706716  0.82855537  0.87137751  1
  O  O14  1  0.66099102  0.19150584  0.21672294  1
  O  O15  1  0.28133159  0.10542042  0.69778750  1
  O  O16  1  0.05510111  0.40798146  0.31547098  1
  O  O17  1  0.84071074  0.31748062  0.57913678  1
  O  O18  1  0.34071074  0.68251938  0.57913678  1
  O  O19  1  0.39458068  0.31874544  0.06610865  1
  O  O20  1  0.93470258  0.80994778  0.37951573  1
  O  O21  1  0.78133159  0.89457958  0.69778750  1
  O  O22  1  0.43470258  0.19005222  0.37951573  1
  O  O23  1  0.99706716  0.17144463  0.87137751  1
  O  O24  1  0.89458068  0.68125456  0.06610865  1
  O  O25  1  0.55510111  0.59201854  0.31547098  1
  O  O26  1  0.16099102  0.80849416  0.21672294  1
  O  O27  1  0.70402632  0.29195744  0.82640946  1
