# generated using pymatgen
data_ZnP2
_symmetry_space_group_name_H-M   'P 1'
_cell_length_a   5.10150732
_cell_length_b   5.10150732
_cell_length_c   18.62742069
_cell_angle_alpha   90.00000000
_cell_angle_beta   90.00000000
_cell_angle_gamma   90.00000000
_symmetry_Int_Tables_number   1
_chemical_formula_structural   ZnP2
_chemical_formula_sum   'Zn8 P16'
_cell_volume   484.78564480
_cell_formula_units_Z   8
loop_
 _symmetry_equiv_pos_site_id
 _symmetry_equiv_pos_as_xyz
  1  'x, y, z'
loop_
 _atom_site_type_symbol
 _atom_site_label
 _atom_site_symmetry_multiplicity
 _atom_site_fract_x
 _atom_site_fract_y
 _atom_site_fract_z
 _atom_site_occupancy
  P  P0  1  0.81839617  0.30131397  0.05950625  1
  P  P1  1  0.19868603  0.31839617  0.30950625  1
  P  P2  1  0.80131397  0.68160383  0.80950625  1
  P  P3  1  0.31839617  0.19868603  0.69049375  1
  P  P4  1  0.68160383  0.80131397  0.19049375  1
  P  P5  1  0.18160383  0.69868603  0.55950625  1
  P  P6  1  0.30131397  0.81839617  0.94049375  1
  P  P7  1  0.69868603  0.18160383  0.44049375  1
  P  P8  1  0.99044731  0.98073151  0.12592062  1
  P  P9  1  0.51926849  0.49044731  0.37592062  1
  P  P10  1  0.48073151  0.50955269  0.87592062  1
  P  P11  1  0.49044731  0.51926849  0.62407938  1
  P  P12  1  0.50955269  0.48073151  0.12407938  1
  P  P13  1  0.00955269  0.01926849  0.62592062  1
  P  P14  1  0.98073151  0.99044731  0.87407938  1
  P  P15  1  0.01926849  0.00955269  0.37407938  1
  Zn  Zn16  1  0.15409155  0.63560486  0.05069414  1
  Zn  Zn17  1  0.86439514  0.65409155  0.30069414  1
  Zn  Zn18  1  0.13560486  0.34590845  0.80069414  1
  Zn  Zn19  1  0.65409155  0.86439514  0.69930586  1
  Zn  Zn20  1  0.34590845  0.13560486  0.19930586  1
  Zn  Zn21  1  0.84590845  0.36439514  0.55069414  1
  Zn  Zn22  1  0.63560486  0.15409155  0.94930586  1
  Zn  Zn23  1  0.36439514  0.84590845  0.44930586  1
