# generated using pymatgen
data_RbNO3
_symmetry_space_group_name_H-M   'P 1'
_cell_length_a   10.74204847
_cell_length_b   10.74204847
_cell_length_c   7.53490842
_cell_angle_alpha   90.00000000
_cell_angle_beta   90.00000000
_cell_angle_gamma   120.00000000
_symmetry_Int_Tables_number   1
_chemical_formula_structural   RbNO3
_chemical_formula_sum   'Rb9 N9 O27'
_cell_volume   752.97893208
_cell_formula_units_Z   9
loop_
 _symmetry_equiv_pos_site_id
 _symmetry_equiv_pos_as_xyz
  1  'x, y, z'
loop_
 _atom_site_type_symbol
 _atom_site_label
 _atom_site_symmetry_multiplicity
 _atom_site_fract_x
 _atom_site_fract_y
 _atom_site_fract_z
 _atom_site_occupancy
  N  N0  1  0.45716938  0.23627267  0.76150945  1
  N  N1  1  0.77910329  0.54283062  0.42817612  1
  N  N2  1  0.76372733  0.22089671  0.09484279  1
  N  N3  1  0.11277005  0.90440009  0.19376407  1
  N  N4  1  0.79163004  0.88722995  0.86043074  1
  N  N5  1  0.09559991  0.20836996  0.52709741  1
  N  N6  1  0.12693666  0.53745822  0.83094491  1
  N  N7  1  0.41052155  0.87306334  0.49761158  1
  N  N8  1  0.46254178  0.58947845  0.16427824  1
  O  O9  1  0.72559351  0.14482937  0.23359936  1
  O  O10  1  0.85517063  0.58076414  0.56693270  1
  O  O11  1  0.41923586  0.27440649  0.90026603  1
  O  O12  1  0.89485512  0.29770770  0.05313204  1
  O  O13  1  0.70229230  0.59714743  0.38646537  1
  O  O14  1  0.40285257  0.10514488  0.71979870  1
  O  O15  1  0.66739257  0.22033396  0.99443430  1
  O  O16  1  0.77966604  0.44705861  0.32776763  1
  O  O17  1  0.55294139  0.33260743  0.66110097  1
  O  O18  1  0.46276273  0.68962681  0.25657724  1
  O  O19  1  0.31037319  0.77313592  0.58991057  1
  O  O20  1  0.22686408  0.53723727  0.92324390  1
  O  O21  1  0.38611508  0.46055421  0.21389323  1
  O  O22  1  0.53944579  0.92556087  0.54722657  1
  O  O23  1  0.07443913  0.61388492  0.88055990  1
  O  O24  1  0.53892750  0.62208724  0.02557957  1
  O  O25  1  0.37791276  0.91684026  0.35891291  1
  O  O26  1  0.08315974  0.46107250  0.69224624  1
  O  O27  1  0.99858146  0.11303430  0.62731737  1
  O  O28  1  0.88696570  0.88554716  0.96065071  1
  O  O29  1  0.11445284  0.00141854  0.29398404  1
  O  O30  1  0.22642148  0.25800638  0.56538205  1
  O  O31  1  0.74199362  0.96841510  0.89871538  1
  O  O32  1  0.03158490  0.77357852  0.23204871  1
  O  O33  1  0.05766928  0.25056238  0.39131017  1
  O  O34  1  0.74943762  0.80710690  0.72464351  1
  O  O35  1  0.19289310  0.94233072  0.05797684  1
  Rb  Rb36  1  0.44833160  0.21820830  0.28898806  1
  Rb  Rb37  1  0.76987670  0.55166840  0.95565473  1
  Rb  Rb38  1  0.78179170  0.23012330  0.62232140  1
  Rb  Rb39  1  0.09112013  0.87320744  0.66769071  1
  Rb  Rb40  1  0.78208731  0.90887987  0.33435737  1
  Rb  Rb41  1  0.12679256  0.21791269  0.00102404  1
  Rb  Rb42  1  0.11245435  0.55176006  0.30287746  1
  Rb  Rb43  1  0.43930571  0.88754565  0.96954413  1
  Rb  Rb44  1  0.44823994  0.56069429  0.63621080  1
