# generated using pymatgen
data_CsCa(NO2)3
_symmetry_space_group_name_H-M   'P 1'
_cell_length_a   5.60672683
_cell_length_b   5.60666833
_cell_length_c   5.60667515
_cell_angle_alpha   89.74529149
_cell_angle_beta   89.74468443
_cell_angle_gamma   89.74451703
_symmetry_Int_Tables_number   1
_chemical_formula_structural   CsCa(NO2)3
_chemical_formula_sum   'Cs1 Ca1 N3 O6'
_cell_volume   176.24092927
_cell_formula_units_Z   1
loop_
 _symmetry_equiv_pos_site_id
 _symmetry_equiv_pos_as_xyz
  1  'x, y, z'
loop_
 _atom_site_type_symbol
 _atom_site_label
 _atom_site_symmetry_multiplicity
 _atom_site_fract_x
 _atom_site_fract_y
 _atom_site_fract_z
 _atom_site_occupancy
  Cs  Cs0  1  0.00015608  0.00015768  0.00015650  1
  Ca  Ca1  1  0.53243524  0.53243095  0.53243128  1
  N  N2  1  0.06931777  0.48301300  0.51026610  1
  N  N3  1  0.48301371  0.51026817  0.06931852  1
  N  N4  1  0.51026568  0.06931824  0.48301276  1
  O  O5  1  0.32195291  0.94476047  0.48052299  1
  O  O6  1  0.48052294  0.32194929  0.94476109  1
  O  O7  1  0.49173574  0.70420050  0.95008318  1
  O  O8  1  0.70419895  0.95008276  0.49173691  1
  O  O9  1  0.94476202  0.48052292  0.32194994  1
  O  O10  1  0.95008195  0.49173602  0.70420073  1
