# generated using pymatgen
data_VF3
_symmetry_space_group_name_H-M   'P 1'
_cell_length_a   5.40239477
_cell_length_b   7.49533177
_cell_length_c   5.14574363
_cell_angle_alpha   90.00168015
_cell_angle_beta   89.99895178
_cell_angle_gamma   89.92809019
_symmetry_Int_Tables_number   1
_chemical_formula_structural   VF3
_chemical_formula_sum   'V4 F12'
_cell_volume   208.36510071
_cell_formula_units_Z   4
loop_
 _symmetry_equiv_pos_site_id
 _symmetry_equiv_pos_as_xyz
  1  'x, y, z'
loop_
 _atom_site_type_symbol
 _atom_site_label
 _atom_site_symmetry_multiplicity
 _atom_site_fract_x
 _atom_site_fract_y
 _atom_site_fract_z
 _atom_site_occupancy
  V  V0  1  0.00000332  0.00000147  0.00000180  1
  V  V1  1  -0.00000393  0.50000203  0.99999263  1
  V  V2  1  0.49999638  0.00000058  0.49999988  1
  V  V3  1  0.50000507  0.49999853  0.50000159  1
  F  F4  1  0.02826646  0.75003407  0.12102906  1
  F  F5  1  0.18955811  0.55968047  0.68315343  1
  F  F6  1  0.18862989  0.94021692  0.68396153  1
  F  F7  1  0.31135179  0.05979793  0.18394191  1
  F  F8  1  0.31043610  0.44029167  0.18317039  1
  F  F9  1  0.47178056  0.24993941  0.62103761  1
  F  F10  1  0.52821379  0.75006091  0.37896359  1
  F  F11  1  0.68865337  0.94020135  0.81606341  1
  F  F12  1  0.68956055  0.55970839  0.81683306  1
  F  F13  1  0.81137513  0.05978180  0.31603301  1
  F  F14  1  0.81044051  0.44032198  0.31684262  1
  F  F15  1  0.97173291  0.24996350  0.87897448  1
