# generated using pymatgen
data_LiSn2N3
_symmetry_space_group_name_H-M   'P 1'
_cell_length_a   6.04332642
_cell_length_b   5.98713650
_cell_length_c   5.54641564
_cell_angle_alpha   90.00000000
_cell_angle_beta   90.00000000
_cell_angle_gamma   119.69290320
_symmetry_Int_Tables_number   1
_chemical_formula_structural   LiSn2N3
_chemical_formula_sum   'Li2 Sn4 N6'
_cell_volume   174.33070428
_cell_formula_units_Z   2
loop_
 _symmetry_equiv_pos_site_id
 _symmetry_equiv_pos_as_xyz
  1  'x, y, z'
loop_
 _atom_site_type_symbol
 _atom_site_label
 _atom_site_symmetry_multiplicity
 _atom_site_fract_x
 _atom_site_fract_y
 _atom_site_fract_z
 _atom_site_occupancy
  Li  Li0  1  0.00000000  0.65862589  0.49411545  1
  Li  Li1  1  0.00000000  0.34137411  0.99411545  1
  Sn  Sn2  1  0.32130454  0.33566349  0.49116111  1
  Sn  Sn3  1  0.67869546  0.01435995  0.49116111  1
  Sn  Sn4  1  0.67869546  0.66433651  0.99116111  1
  Sn  Sn5  1  0.32130454  0.98564005  0.99116111  1
  N  N6  1  0.35019525  0.33303990  0.87033482  1
  N  N7  1  0.64980475  0.98284465  0.87033482  1
  N  N8  1  0.64980475  0.66696010  0.37033482  1
  N  N9  1  0.35019525  0.01715535  0.37033482  1
  N  N10  1  0.00000000  0.67317744  0.87089368  1
  N  N11  1  0.00000000  0.32682256  0.37089368  1
