# generated using pymatgen
data_Y2(CN2)3
_symmetry_space_group_name_H-M   'P 1'
_cell_length_a   10.64477398
_cell_length_b   6.51629202
_cell_length_c   29.87331177
_cell_angle_alpha   90.00000256
_cell_angle_beta   159.30274444
_cell_angle_gamma   72.17688337
_symmetry_Int_Tables_number   1
_chemical_formula_structural   Y2(CN2)3
_chemical_formula_sum   'Y4 C6 N12'
_cell_volume   366.17933473
_cell_formula_units_Z   2
loop_
 _symmetry_equiv_pos_site_id
 _symmetry_equiv_pos_as_xyz
  1  'x, y, z'
loop_
 _atom_site_type_symbol
 _atom_site_label
 _atom_site_symmetry_multiplicity
 _atom_site_fract_x
 _atom_site_fract_y
 _atom_site_fract_z
 _atom_site_occupancy
  Y  Y0  1  0.00000000  0.00000000  0.33652546  1
  Y  Y1  1  0.00000000  0.00000000  0.83652546  1
  Y  Y2  1  0.00000000  0.00000000  0.66347454  1
  Y  Y3  1  0.00000000  0.00000000  0.16347454  1
  C  C4  1  0.87802672  0.41464919  0.54267591  1
  C  C5  1  0.12197328  0.29267591  0.95732409  1
  C  C6  1  0.00000000  0.29267591  0.25000000  1
  C  C7  1  0.87802672  0.70732409  0.04267591  1
  C  C8  1  0.00000000  0.70732409  0.75000000  1
  C  C9  1  0.12197328  0.58535081  0.45732409  1
  N  N10  1  0.75650045  0.82291025  0.04088005  1
  N  N11  1  0.22523019  0.59767906  0.86379030  1
  N  N12  1  0.01826936  0.57941070  0.46146935  1
  N  N13  1  0.75650045  0.42058930  0.54088005  1
  N  N14  1  0.01826936  0.40232094  0.96146935  1
  N  N15  1  0.22523019  0.17708975  0.36379030  1
  N  N16  1  0.24349955  0.17708975  0.95911995  1
  N  N17  1  0.77476981  0.40232094  0.13620970  1
  N  N18  1  0.98173064  0.42058930  0.53853065  1
  N  N19  1  0.24349955  0.57941070  0.45911995  1
  N  N20  1  0.98173064  0.59767906  0.03853065  1
  N  N21  1  0.77476981  0.82291025  0.63620970  1
