# generated using pymatgen
data_Sr3GeO5
_symmetry_space_group_name_H-M   'P 1'
_cell_length_a   7.51798593
_cell_length_b   6.97737308
_cell_length_c   11.35273636
_cell_angle_alpha   90.09290523
_cell_angle_beta   41.02397588
_cell_angle_gamma   62.43829708
_symmetry_Int_Tables_number   1
_chemical_formula_structural   Sr3GeO5
_chemical_formula_sum   'Sr6 Ge2 O10'
_cell_volume   276.51387689
_cell_formula_units_Z   2
loop_
 _symmetry_equiv_pos_site_id
 _symmetry_equiv_pos_as_xyz
  1  'x, y, z'
loop_
 _atom_site_type_symbol
 _atom_site_label
 _atom_site_symmetry_multiplicity
 _atom_site_fract_x
 _atom_site_fract_y
 _atom_site_fract_z
 _atom_site_occupancy
  Sr  Sr0  1  0.99497714  0.50426460  0.99836076  1
  Sr  Sr1  1  0.99751722  0.50167271  0.49247773  1
  Sr  Sr2  1  0.37009572  0.99425255  0.06503800  1
  Sr  Sr3  1  0.36561191  0.63351025  0.56818024  1
  Sr  Sr4  1  0.62961600  0.00446967  0.43673209  1
  Sr  Sr5  1  0.63386351  0.36422888  0.93252885  1
  Ge  Ge6  1  0.99865127  0.00161242  0.00232569  1
  Ge  Ge7  1  0.00400339  0.99736207  0.50055602  1
  O  O8  1  0.00222308  0.50043289  0.25724646  1
  O  O9  1  0.99886808  0.50049785  0.75650637  1
  O  O10  1  0.28264656  0.99890837  0.76390879  1
  O  O11  1  0.28671888  0.71771832  0.26136607  1
  O  O12  1  0.28579903  0.99530091  0.45744984  1
  O  O13  1  0.27640177  0.72326317  0.96162698  1
  O  O14  1  0.72663467  0.99400789  0.04050722  1
  O  O15  1  0.72270642  0.27833967  0.54435193  1
  O  O16  1  0.72331115  0.99851357  0.73836444  1
  O  O17  1  0.71563118  0.28408221  0.24003352  1
