# generated using pymatgen
data_K3LiP2O7
_symmetry_space_group_name_H-M   'P 1'
_cell_length_a   5.65419719
_cell_length_b   5.65419719
_cell_length_c   13.53049370
_cell_angle_alpha   90.00000000
_cell_angle_beta   90.00000000
_cell_angle_gamma   114.27494011
_symmetry_Int_Tables_number   1
_chemical_formula_structural   K3LiP2O7
_chemical_formula_sum   'K6 Li2 P4 O14'
_cell_volume   394.32276017
_cell_formula_units_Z   2
loop_
 _symmetry_equiv_pos_site_id
 _symmetry_equiv_pos_as_xyz
  1  'x, y, z'
loop_
 _atom_site_type_symbol
 _atom_site_label
 _atom_site_symmetry_multiplicity
 _atom_site_fract_x
 _atom_site_fract_y
 _atom_site_fract_z
 _atom_site_occupancy
  K  K0  1  0.86584848  0.86584848  0.50000000  1
  K  K1  1  0.13415152  0.13415152  -0.00000000  1
  K  K2  1  0.53769769  0.22358298  0.37732820  1
  K  K3  1  0.22358298  0.53769769  0.62267180  1
  K  K4  1  0.46230231  0.77641702  0.87732820  1
  K  K5  1  0.77641702  0.46230231  0.12267180  1
  Li  Li6  1  0.01209167  0.98790833  0.25000000  1
  Li  Li7  1  0.98790833  0.01209167  0.75000000  1
  P  P8  1  0.17585674  0.55806571  0.34453750  1
  P  P9  1  0.55806571  0.17585674  0.65546250  1
  P  P10  1  0.82414326  0.44193429  0.84453750  1
  P  P11  1  0.44193429  0.82414326  0.15546250  1
  O  O12  1  0.96859404  0.65927059  0.31949370  1
  O  O13  1  0.65927059  0.96859404  0.68050630  1
  O  O14  1  0.03140596  0.34072941  0.81949370  1
  O  O15  1  0.34072941  0.03140596  0.18050630  1
  O  O16  1  0.06095800  0.25968173  0.35195514  1
  O  O17  1  0.25968173  0.06095800  0.64804486  1
  O  O18  1  0.93904200  0.74031827  0.85195514  1
  O  O19  1  0.74031827  0.93904200  0.14804486  1
  O  O20  1  0.34492212  0.69509186  0.43316830  1
  O  O21  1  0.69509186  0.34492212  0.56683170  1
  O  O22  1  0.65507788  0.30490814  0.93316830  1
  O  O23  1  0.30490814  0.65507788  0.06683170  1
  O  O24  1  0.37721097  0.62278903  0.25000000  1
  O  O25  1  0.62278903  0.37721097  0.75000000  1
