# generated using pymatgen
data_BaAg(PO3)3
_symmetry_space_group_name_H-M   'P 1'
_cell_length_a   6.07215080
_cell_length_b   11.30994826
_cell_length_c   12.47107693
_cell_angle_alpha   90.00000000
_cell_angle_beta   90.00000000
_cell_angle_gamma   90.00000000
_symmetry_Int_Tables_number   1
_chemical_formula_structural   BaAg(PO3)3
_chemical_formula_sum   'Ba4 Ag4 P12 O36'
_cell_volume   856.46007978
_cell_formula_units_Z   4
loop_
 _symmetry_equiv_pos_site_id
 _symmetry_equiv_pos_as_xyz
  1  'x, y, z'
loop_
 _atom_site_type_symbol
 _atom_site_label
 _atom_site_symmetry_multiplicity
 _atom_site_fract_x
 _atom_site_fract_y
 _atom_site_fract_z
 _atom_site_occupancy
  O  O0  1  0.01357904  0.93546802  0.93169440  1
  O  O1  1  0.51357904  0.56453198  0.06830560  1
  O  O2  1  0.98642096  0.43546802  0.56830560  1
  O  O3  1  0.48642096  0.06453198  0.43169440  1
  O  O4  1  0.32593456  0.87038375  0.80082293  1
  O  O5  1  0.82593456  0.62961625  0.19917707  1
  O  O6  1  0.67406544  0.37038375  0.69917707  1
  O  O7  1  0.17406544  0.12961625  0.30082293  1
  O  O8  1  0.69418422  0.70401454  0.63028371  1
  O  O9  1  0.19418422  0.79598546  0.36971629  1
  O  O10  1  0.30581578  0.20401454  0.86971629  1
  O  O11  1  0.80581578  0.29598546  0.13028371  1
  O  O12  1  0.11332453  0.70371514  0.61311813  1
  O  O13  1  0.61332453  0.79628486  0.38688187  1
  O  O14  1  0.88667547  0.20371514  0.88688187  1
  O  O15  1  0.38667547  0.29628486  0.11311813  1
  O  O16  1  0.32726873  0.55289388  0.82114292  1
  O  O17  1  0.82726873  0.94710612  0.17885708  1
  O  O18  1  0.67273127  0.05289388  0.67885708  1
  O  O19  1  0.17273127  0.44710612  0.32114292  1
  O  O20  1  0.38373702  0.28047196  0.41751689  1
  O  O21  1  0.88373702  0.21952804  0.58248311  1
  O  O22  1  0.61626298  0.78047196  0.08248311  1
  O  O23  1  0.11626298  0.71952804  0.91751689  1
  O  O24  1  0.57684371  0.17822732  0.26336013  1
  O  O25  1  0.07684371  0.32177268  0.73663987  1
  O  O26  1  0.42315629  0.67822732  0.23663987  1
  O  O27  1  0.92315629  0.82177268  0.76336013  1
  O  O28  1  0.57502760  0.39863600  0.27325175  1
  O  O29  1  0.07502760  0.10136400  0.72674825  1
  O  O30  1  0.42497240  0.89863600  0.22674825  1
  O  O31  1  0.92497240  0.60136400  0.77325175  1
  O  O32  1  0.49484972  0.49425354  0.44917737  1
  O  O33  1  0.99484972  0.00574646  0.55082263  1
  O  O34  1  0.50515028  0.99425354  0.05082263  1
  O  O35  1  0.00515028  0.50574646  0.94917737  1
  P  P36  1  0.11047539  0.84710041  0.85629064  1
  P  P37  1  0.61047539  0.65289959  0.14370936  1
  P  P38  1  0.88952461  0.34710041  0.64370936  1
  P  P39  1  0.38952461  0.15289959  0.35629064  1
  P  P40  1  0.91348973  0.70728273  0.68564622  1
  P  P41  1  0.41348973  0.79271727  0.31435378  1
  P  P42  1  0.08651027  0.20728273  0.81435378  1
  P  P43  1  0.58651027  0.29271727  0.18564622  1
  P  P44  1  0.10866560  0.58753832  0.86830552  1
  P  P45  1  0.60866560  0.91246168  0.13169448  1
  P  P46  1  0.89133440  0.08753832  0.63169448  1
  P  P47  1  0.39133440  0.41246168  0.36830552  1
  Ag  Ag48  1  0.10311275  0.48332923  0.13357973  1
  Ag  Ag49  1  0.60311275  0.01667077  0.86642027  1
  Ag  Ag50  1  0.89688725  0.98332923  0.36642027  1
  Ag  Ag51  1  0.39688725  0.51667077  0.63357973  1
  Ba  Ba52  1  0.09761203  0.10875038  0.08076827  1
  Ba  Ba53  1  0.59761203  0.39124962  0.91923173  1
  Ba  Ba54  1  0.90238797  0.60875038  0.41923173  1
  Ba  Ba55  1  0.40238797  0.89124962  0.58076827  1
