# generated using pymatgen
data_Sc2Se3
_symmetry_space_group_name_H-M   'P 1'
_cell_length_a   7.71239102
_cell_length_b   11.68392646
_cell_length_c   6.77179648
_cell_angle_alpha   29.60697464
_cell_angle_beta   54.26838428
_cell_angle_gamma   59.46636310
_symmetry_Int_Tables_number   1
_chemical_formula_structural   Sc2Se3
_chemical_formula_sum   'Sc4 Se6'
_cell_volume   244.72532608
_cell_formula_units_Z   2
loop_
 _symmetry_equiv_pos_site_id
 _symmetry_equiv_pos_as_xyz
  1  'x, y, z'
loop_
 _atom_site_type_symbol
 _atom_site_label
 _atom_site_symmetry_multiplicity
 _atom_site_fract_x
 _atom_site_fract_y
 _atom_site_fract_z
 _atom_site_occupancy
  Sc  Sc0  1  0.99961897  0.99296754  0.01255040  1
  Sc  Sc1  1  0.50004230  0.34177718  0.98706356  1
  Sc  Sc2  1  0.49914218  0.66326104  0.00544809  1
  Sc  Sc3  1  0.99960439  0.67094059  0.99455548  1
  Se  Se4  1  0.24738380  0.99460112  0.52246945  1
  Se  Se5  1  0.25139788  0.33889677  0.47914498  1
  Se  Se6  1  0.24831927  0.66478025  0.50335320  1
  Se  Se7  1  0.75002889  0.99501444  0.49653786  1
  Se  Se8  1  0.74814192  0.33961899  0.50362086  1
  Se  Se9  1  0.74913041  0.66804207  0.49879913  1
