# generated using pymatgen
data_LiMnPO4
_symmetry_space_group_name_H-M   'P 1'
_cell_length_a   8.57564229
_cell_length_b   5.49773321
_cell_length_c   8.05691836
_cell_angle_alpha   90.00000000
_cell_angle_beta   104.60813681
_cell_angle_gamma   90.00000000
_symmetry_Int_Tables_number   1
_chemical_formula_structural   LiMnPO4
_chemical_formula_sum   'Li4 Mn4 P4 O16'
_cell_volume   367.57677907
_cell_formula_units_Z   4
loop_
 _symmetry_equiv_pos_site_id
 _symmetry_equiv_pos_as_xyz
  1  'x, y, z'
loop_
 _atom_site_type_symbol
 _atom_site_label
 _atom_site_symmetry_multiplicity
 _atom_site_fract_x
 _atom_site_fract_y
 _atom_site_fract_z
 _atom_site_occupancy
  Li  Li0  1  0.06944982  0.84867293  0.96889725  1
  Li  Li1  1  0.28344954  0.34169180  0.49778102  1
  Li  Li2  1  0.56944982  0.15132707  0.96889725  1
  Li  Li3  1  0.78344954  0.65831020  0.49778102  1
  O  O4  1  0.06395044  0.40524027  0.31819659  1
  O  O5  1  0.93611022  0.79820889  0.37412808  1
  O  O6  1  0.98952417  0.16091231  0.87922971  1
  O  O7  1  0.84461923  0.31500714  0.58594540  1
  O  O8  1  0.19442019  0.71244702  0.81835705  1
  O  O9  1  0.90015964  0.66327602  0.06365600  1
  O  O10  1  0.27335827  0.10439602  0.69091414  1
  O  O11  1  0.16538637  0.80243090  0.21940437  1
  O  O12  1  0.34461923  0.68499486  0.58594540  1
  O  O13  1  0.48952417  0.83908969  0.87922971  1
  O  O14  1  0.66538637  0.19756910  0.21940437  1
  O  O15  1  0.40015964  0.33672298  0.06365700  1
  O  O16  1  0.69442019  0.28755498  0.81835705  1
  O  O17  1  0.56395044  0.59475873  0.31819659  1
  O  O18  1  0.77335827  0.89560398  0.69091414  1
  O  O19  1  0.43611022  0.20179311  0.37412808  1
  P  P20  1  0.82446267  0.16397837  0.74223814  1
  P  P21  1  0.51539615  0.33563554  0.24604512  1
  P  P22  1  0.32446267  0.83602163  0.74223814  1
  P  P23  1  0.01539615  0.66436446  0.24604512  1
  Mn  Mn24  1  0.19683399  0.34140797  0.86687268  1
  Mn  Mn25  1  0.39668031  0.83467184  0.36713245  1
  Mn  Mn26  1  0.69683299  0.65859203  0.86687268  1
  Mn  Mn27  1  0.89668131  0.16532716  0.36713345  1
