# generated using pymatgen
data_Ca(HoS2)2
_symmetry_space_group_name_H-M   'P 1'
_cell_length_a   7.23303325
_cell_length_b   7.23300066
_cell_length_c   7.23287470
_cell_angle_alpha   109.49824467
_cell_angle_beta   109.50057240
_cell_angle_gamma   109.41634466
_symmetry_Int_Tables_number   1
_chemical_formula_structural   Ca(HoS2)2
_chemical_formula_sum   'Ca2 Ho4 S8'
_cell_volume   291.28609276
_cell_formula_units_Z   2
loop_
 _symmetry_equiv_pos_site_id
 _symmetry_equiv_pos_as_xyz
  1  'x, y, z'
loop_
 _atom_site_type_symbol
 _atom_site_label
 _atom_site_symmetry_multiplicity
 _atom_site_fract_x
 _atom_site_fract_y
 _atom_site_fract_z
 _atom_site_occupancy
  Ca  Ca0  1  0.62500570  0.37500682  0.25000347  1
  Ca  Ca1  1  0.87499922  0.12499824  0.74999704  1
  Ho  Ho2  1  0.12302580  0.75000512  0.87303459  1
  Ho  Ho3  1  0.25000273  0.62302098  0.37303340  1
  Ho  Ho4  1  0.37698650  0.25000374  0.62697572  1
  Ho  Ho5  1  0.75000592  0.87698859  0.12697413  1
  S  S6  1  0.00744258  0.86281221  0.49989101  1
  S  S7  1  0.00755313  0.36290728  0.50008566  1
  S  S8  1  0.13719312  0.13707973  0.14465067  1
  S  S9  1  0.49242742  0.99256374  0.35536749  1
  S  S10  1  0.36281496  0.50743935  0.99988854  1
  S  S11  1  0.49255174  0.99242036  0.85536076  1
  S  S12  1  0.63707451  0.63719576  0.64464929  1
  S  S13  1  0.86291667  0.50755808  0.00008822  1
