# generated using pymatgen
data_NaYSiO4
_symmetry_space_group_name_H-M   'P 1'
_cell_length_a   5.19102937
_cell_length_b   6.48984130
_cell_length_c   11.27346204
_cell_angle_alpha   90.00000000
_cell_angle_beta   90.00000000
_cell_angle_gamma   90.00000000
_symmetry_Int_Tables_number   1
_chemical_formula_structural   NaYSiO4
_chemical_formula_sum   'Na4 Y4 Si4 O16'
_cell_volume   379.79117559
_cell_formula_units_Z   4
loop_
 _symmetry_equiv_pos_site_id
 _symmetry_equiv_pos_as_xyz
  1  'x, y, z'
loop_
 _atom_site_type_symbol
 _atom_site_label
 _atom_site_symmetry_multiplicity
 _atom_site_fract_x
 _atom_site_fract_y
 _atom_site_fract_z
 _atom_site_occupancy
  O  O0  1  0.74904267  0.50185097  0.88652779  1
  O  O1  1  0.25095733  0.00185097  0.11347221  1
  O  O2  1  0.75095733  0.50185097  0.38652779  1
  O  O3  1  0.24904267  0.00185097  0.61347221  1
  O  O4  1  0.83378081  0.00183135  0.96288968  1
  O  O5  1  0.16621919  0.50183135  0.03711032  1
  O  O6  1  0.66621919  0.00183135  0.46288968  1
  O  O7  1  0.33378081  0.50183135  0.53711032  1
  O  O8  1  0.70089204  0.80432684  0.67142474  1
  O  O9  1  0.29910796  0.30432684  0.32857526  1
  O  O10  1  0.79910796  0.80432684  0.17142474  1
  O  O11  1  0.20089204  0.30432684  0.82857526  1
  O  O12  1  0.20090088  0.69941222  0.82859038  1
  O  O13  1  0.79909912  0.19941222  0.17140962  1
  O  O14  1  0.29909912  0.69941222  0.32859038  1
  O  O15  1  0.70090088  0.19941222  0.67140962  1
  Na  Na16  1  0.50001693  0.75186192  0.99996070  1
  Na  Na17  1  0.49998307  0.25186192  0.00003930  1
  Na  Na18  1  0.00001693  0.25186192  0.50003930  1
  Na  Na19  1  0.99998307  0.75186192  0.49996070  1
  Si  Si20  1  0.56117477  0.00185741  0.60002532  1
  Si  Si21  1  0.93882523  0.00185741  0.10002532  1
  Si  Si22  1  0.43882523  0.50185741  0.39997468  1
  Si  Si23  1  0.06117477  0.50185741  0.89997468  1
  Y  Y24  1  0.49901840  0.50185929  0.71952256  1
  Y  Y25  1  0.50098160  0.00185929  0.28047744  1
  Y  Y26  1  0.00098160  0.50185929  0.21952256  1
  Y  Y27  1  0.99901840  0.00185929  0.78047744  1
