# generated using pymatgen
data_Ba4SiAs4
_symmetry_space_group_name_H-M   'P 1'
_cell_length_a   13.48884375
_cell_length_b   13.48884375
_cell_length_c   13.48884375
_cell_angle_alpha   90.00000000
_cell_angle_beta   90.00000000
_cell_angle_gamma   90.00000000
_symmetry_Int_Tables_number   1
_chemical_formula_structural   Ba4SiAs4
_chemical_formula_sum   'Ba32 Si8 As32'
_cell_volume   2454.28035963
_cell_formula_units_Z   8
loop_
 _symmetry_equiv_pos_site_id
 _symmetry_equiv_pos_as_xyz
  1  'x, y, z'
loop_
 _atom_site_type_symbol
 _atom_site_label
 _atom_site_symmetry_multiplicity
 _atom_site_fract_x
 _atom_site_fract_y
 _atom_site_fract_z
 _atom_site_occupancy
  Si  Si0  1  0.00000000  0.00000000  0.00000000  1
  Si  Si1  1  0.75000000  0.00000000  0.50000000  1
  Si  Si2  1  0.50000000  0.75000000  0.00000000  1
  Si  Si3  1  0.50000000  0.25000000  0.00000000  1
  Si  Si4  1  0.00000000  0.50000000  0.25000000  1
  Si  Si5  1  0.00000000  0.50000000  0.75000000  1
  Si  Si6  1  0.25000000  0.00000000  0.50000000  1
  Si  Si7  1  0.50000000  0.50000000  0.50000000  1
  As  As8  1  0.60280729  0.84799936  0.11190310  1
  As  As9  1  0.65200064  0.10280729  0.38809690  1
  As  As10  1  0.89719271  0.61190310  0.65200064  1
  As  As11  1  0.10280729  0.61190310  0.34799936  1
  As  As12  1  0.61190310  0.65200064  0.89719271  1
  As  As13  1  0.38809690  0.34799936  0.89719271  1
  As  As14  1  0.84799936  0.88809690  0.39719271  1
  As  As15  1  0.84799936  0.11190310  0.60280729  1
  As  As16  1  0.15200064  0.88809690  0.60280729  1
  As  As17  1  0.39608723  0.39608723  0.39608723  1
  As  As18  1  0.60280729  0.15200064  0.88809690  1
  As  As19  1  0.65200064  0.89719271  0.61190310  1
  As  As20  1  0.88809690  0.39719271  0.84799936  1
  As  As21  1  0.39719271  0.84799936  0.88809690  1
  As  As22  1  0.88809690  0.60280729  0.15200064  1
  As  As23  1  0.11190310  0.39719271  0.15200064  1
  As  As24  1  0.39719271  0.15200064  0.11190310  1
  As  As25  1  0.38809690  0.65200064  0.10280729  1
  As  As26  1  0.61190310  0.34799936  0.10280729  1
  As  As27  1  0.89719271  0.38809690  0.34799936  1
  As  As28  1  0.10280729  0.38809690  0.65200064  1
  As  As29  1  0.34799936  0.10280729  0.61190310  1
  As  As30  1  0.34799936  0.89719271  0.38809690  1
  As  As31  1  0.15200064  0.11190310  0.39719271  1
  As  As32  1  0.10391277  0.89608723  0.10391277  1
  As  As33  1  0.10391277  0.10391277  0.89608723  1
  As  As34  1  0.89608723  0.10391277  0.10391277  1
  As  As35  1  0.60391277  0.60391277  0.39608723  1
  As  As36  1  0.39608723  0.60391277  0.60391277  1
  As  As37  1  0.60391277  0.39608723  0.60391277  1
  As  As38  1  0.89608723  0.89608723  0.89608723  1
  As  As39  1  0.11190310  0.60280729  0.84799936  1
  Ba  Ba40  1  0.14441423  0.14441423  0.14441423  1
  Ba  Ba41  1  0.35558577  0.64441423  0.35558577  1
  Ba  Ba42  1  0.64441423  0.35558577  0.35558577  1
  Ba  Ba43  1  0.35558577  0.35558577  0.64441423  1
  Ba  Ba44  1  0.14441423  0.85558577  0.85558577  1
  Ba  Ba45  1  0.85558577  0.85558577  0.14441423  1
  Ba  Ba46  1  0.85558577  0.14441423  0.85558577  1
  Ba  Ba47  1  0.64441423  0.64441423  0.64441423  1
  Ba  Ba48  1  0.90450123  0.86835354  0.64434628  1
  Ba  Ba49  1  0.90450123  0.13164646  0.35565372  1
  Ba  Ba50  1  0.86835354  0.64434628  0.90450123  1
  Ba  Ba51  1  0.13164646  0.64434628  0.09549877  1
  Ba  Ba52  1  0.64434628  0.90450123  0.86835354  1
  Ba  Ba53  1  0.35565372  0.09549877  0.86835354  1
  Ba  Ba54  1  0.59549877  0.85565372  0.36835354  1
  Ba  Ba55  1  0.59549877  0.14434628  0.63164646  1
  Ba  Ba56  1  0.40450123  0.85565372  0.63164646  1
  Ba  Ba57  1  0.14434628  0.63164646  0.59549877  1
  Ba  Ba58  1  0.63164646  0.40450123  0.85565372  1
  Ba  Ba59  1  0.63164646  0.59549877  0.14434628  1
  Ba  Ba60  1  0.85565372  0.36835354  0.59549877  1
  Ba  Ba61  1  0.36835354  0.59549877  0.85565372  1
  Ba  Ba62  1  0.85565372  0.63164646  0.40450123  1
  Ba  Ba63  1  0.14434628  0.36835354  0.40450123  1
  Ba  Ba64  1  0.36835354  0.40450123  0.14434628  1
  Ba  Ba65  1  0.35565372  0.90450123  0.13164646  1
  Ba  Ba66  1  0.64434628  0.09549877  0.13164646  1
  Ba  Ba67  1  0.86835354  0.35565372  0.09549877  1
  Ba  Ba68  1  0.13164646  0.35565372  0.90450123  1
  Ba  Ba69  1  0.09549877  0.13164646  0.64434628  1
  Ba  Ba70  1  0.09549877  0.86835354  0.35565372  1
  Ba  Ba71  1  0.40450123  0.14434628  0.36835354  1
