# generated using pymatgen
data_Cu2SnS3
_symmetry_space_group_name_H-M   'P 1'
_cell_length_a   6.69348212
_cell_length_b   6.69386729
_cell_length_c   6.72320817
_cell_angle_alpha   80.30268665
_cell_angle_beta   70.31153544
_cell_angle_gamma   60.00190340
_symmetry_Int_Tables_number   1
_chemical_formula_structural   Cu2SnS3
_chemical_formula_sum   'Cu4 Sn2 S6'
_cell_volume   245.63076428
_cell_formula_units_Z   2
loop_
 _symmetry_equiv_pos_site_id
 _symmetry_equiv_pos_as_xyz
  1  'x, y, z'
loop_
 _atom_site_type_symbol
 _atom_site_label
 _atom_site_symmetry_multiplicity
 _atom_site_fract_x
 _atom_site_fract_y
 _atom_site_fract_z
 _atom_site_occupancy
  S  S0  1  0.24373856  0.81695578  0.60334093  1
  S  S1  1  0.06069434  0.18304422  0.10334093  1
  S  S2  1  0.40678785  0.47712666  0.12407707  1
  S  S3  1  0.88391451  0.52287334  0.62407707  1
  S  S4  1  0.69907225  0.83064741  0.12277611  1
  S  S5  1  0.52971966  0.16935259  0.62277611  1
  Cu  Cu6  1  0.44179717  0.16300178  0.98644831  1
  Cu  Cu7  1  0.26263858  0.49605914  0.48798330  1
  Cu  Cu8  1  0.60479895  0.83699822  0.48644831  1
  Cu  Cu9  1  0.75869771  0.50394086  0.98798330  1
  Sn  Sn10  1  0.90878989  0.18516066  0.50437427  1
  Sn  Sn11  1  0.09395055  0.81483934  0.00437427  1
