# generated using pymatgen
data_SiO2
_symmetry_space_group_name_H-M   'P 1'
_cell_length_a   8.85861562
_cell_length_b   8.85861525
_cell_length_c   8.85861530
_cell_angle_alpha   109.47122078
_cell_angle_beta   109.47121992
_cell_angle_gamma   109.47121878
_symmetry_Int_Tables_number   1
_chemical_formula_structural   SiO2
_chemical_formula_sum   'Si12 O24'
_cell_volume   535.15016265
_cell_formula_units_Z   12
loop_
 _symmetry_equiv_pos_site_id
 _symmetry_equiv_pos_as_xyz
  1  'x, y, z'
loop_
 _atom_site_type_symbol
 _atom_site_label
 _atom_site_symmetry_multiplicity
 _atom_site_fract_x
 _atom_site_fract_y
 _atom_site_fract_z
 _atom_site_occupancy
  Si  Si0  1  0.87500000  0.12500000  0.75000000  1
  Si  Si1  1  0.62500000  0.75000000  0.37500000  1
  Si  Si2  1  0.25000000  0.62500000  0.37500000  1
  Si  Si3  1  0.12500000  0.75000000  0.87500000  1
  Si  Si4  1  0.25000000  0.12500000  0.87500000  1
  Si  Si5  1  0.87500000  0.25000000  0.12500000  1
  Si  Si6  1  0.75000000  0.87500000  0.12500000  1
  Si  Si7  1  0.75000000  0.37500000  0.62500000  1
  Si  Si8  1  0.62500000  0.37500000  0.25000000  1
  Si  Si9  1  0.12500000  0.87500000  0.25000000  1
  Si  Si10  1  0.37500000  0.25000000  0.62500000  1
  Si  Si11  1  0.37500000  0.62500000  0.75000000  1
  O  O12  1  0.65741194  0.31482389  0.40741194  1
  O  O13  1  0.59258806  0.34258806  0.68517611  1
  O  O14  1  0.84258806  0.25000000  0.65741194  1
  O  O15  1  0.09258806  0.40741194  0.25000000  1
  O  O16  1  0.81482389  0.15741194  0.90741194  1
  O  O17  1  0.40741194  0.25000000  0.09258806  1
  O  O18  1  0.68517611  0.59258806  0.34258806  1
  O  O19  1  0.34258806  0.15741194  0.75000000  1
  O  O20  1  0.15741194  0.90741194  0.81482389  1
  O  O21  1  0.31482389  0.40741194  0.65741194  1
  O  O22  1  0.15741194  0.75000000  0.34258806  1
  O  O23  1  0.90741194  0.59258806  0.75000000  1
  O  O24  1  0.25000000  0.65741194  0.84258806  1
  O  O25  1  0.75000000  0.34258806  0.15741194  1
  O  O26  1  0.75000000  0.90741194  0.59258806  1
  O  O27  1  0.40741194  0.65741194  0.31482389  1
  O  O28  1  0.25000000  0.09258806  0.40741194  1
  O  O29  1  0.84258806  0.09258806  0.18517611  1
  O  O30  1  0.59258806  0.75000000  0.90741194  1
  O  O31  1  0.65741194  0.84258806  0.25000000  1
  O  O32  1  0.09258806  0.18517611  0.84258806  1
  O  O33  1  0.90741194  0.81482389  0.15741194  1
  O  O34  1  0.18517611  0.84258806  0.09258806  1
  O  O35  1  0.34258806  0.68517611  0.59258806  1
