# generated using pymatgen
data_Li5SbS
_symmetry_space_group_name_H-M   'P 1'
_cell_length_a   4.29995904
_cell_length_b   6.08351558
_cell_length_c   6.41796715
_cell_angle_alpha   90.19309506
_cell_angle_beta   89.99370134
_cell_angle_gamma   45.01784354
_symmetry_Int_Tables_number   1
_chemical_formula_structural   Li5SbS
_chemical_formula_sum   'Li5 Sb1 S1'
_cell_volume   118.74941606
_cell_formula_units_Z   1
loop_
 _symmetry_equiv_pos_site_id
 _symmetry_equiv_pos_as_xyz
  1  'x, y, z'
loop_
 _atom_site_type_symbol
 _atom_site_label
 _atom_site_symmetry_multiplicity
 _atom_site_fract_x
 _atom_site_fract_y
 _atom_site_fract_z
 _atom_site_occupancy
  Li  Li0  1  0.51073577  0.49037163  0.49986468  1
  Li  Li1  1  0.00991562  0.99087022  0.21347814  1
  Li  Li2  1  0.99705401  0.00323023  0.78661090  1
  Li  Li3  1  0.99571387  0.50509427  0.78695658  1
  Li  Li4  1  0.01028587  0.49065981  0.21321554  1
  Sb  Sb5  1  0.50404785  0.99656302  0.49995847  1
  S  S6  1  0.50289802  0.49791582  0.99991569  1
