# generated using pymatgen
data_HoAgTe2
_symmetry_space_group_name_H-M   'P 1'
_cell_length_a   4.72184985
_cell_length_b   7.09801418
_cell_length_c   7.09801418
_cell_angle_alpha   90.00000000
_cell_angle_beta   90.00000000
_cell_angle_gamma   90.00000000
_symmetry_Int_Tables_number   1
_chemical_formula_structural   HoAgTe2
_chemical_formula_sum   'Ho2 Ag2 Te4'
_cell_volume   237.89531980
_cell_formula_units_Z   2
loop_
 _symmetry_equiv_pos_site_id
 _symmetry_equiv_pos_as_xyz
  1  'x, y, z'
loop_
 _atom_site_type_symbol
 _atom_site_label
 _atom_site_symmetry_multiplicity
 _atom_site_fract_x
 _atom_site_fract_y
 _atom_site_fract_z
 _atom_site_occupancy
  Ag  Ag0  1  0.00000000  0.00000000  0.00000000  1
  Ag  Ag1  1  0.00000000  0.50000000  0.50000000  1
  Te  Te2  1  0.29086493  0.20158924  0.70158924  1
  Te  Te3  1  0.70913507  0.70158924  0.79841076  1
  Te  Te4  1  0.29086493  0.79841076  0.29841076  1
  Te  Te5  1  0.70913507  0.29841076  0.20158924  1
  Ho  Ho6  1  0.19137564  0.50000000  0.00000000  1
  Ho  Ho7  1  0.80862436  0.00000000  0.50000000  1
