# generated using pymatgen
data_Tl3AsS3
_symmetry_space_group_name_H-M   'P 1'
_cell_length_a   6.19065181
_cell_length_b   6.19065181
_cell_length_c   6.19065181
_cell_angle_alpha   105.70154845
_cell_angle_beta   105.70154841
_cell_angle_gamma   105.70154848
_symmetry_Int_Tables_number   1
_chemical_formula_structural   Tl3AsS3
_chemical_formula_sum   'Tl3 As1 S3'
_cell_volume   204.18022791
_cell_formula_units_Z   1
loop_
 _symmetry_equiv_pos_site_id
 _symmetry_equiv_pos_as_xyz
  1  'x, y, z'
loop_
 _atom_site_type_symbol
 _atom_site_label
 _atom_site_symmetry_multiplicity
 _atom_site_fract_x
 _atom_site_fract_y
 _atom_site_fract_z
 _atom_site_occupancy
  S  S0  1  0.05982921  0.42141417  0.42141417  1
  S  S1  1  0.42141417  0.42141417  0.05982921  1
  S  S2  1  0.42141417  0.05982921  0.42141417  1
  As  As3  1  0.43653314  0.43653314  0.43653314  1
  Tl  Tl4  1  0.61363075  0.01108928  0.01108928  1
  Tl  Tl5  1  0.01108928  0.01108928  0.61363075  1
  Tl  Tl6  1  0.01108928  0.61363075  0.01108928  1
