# generated using pymatgen
data_ZrSnPd
_symmetry_space_group_name_H-M   'P 1'
_cell_length_a   4.52929240
_cell_length_b   4.52929201
_cell_length_c   4.52929258
_cell_angle_alpha   59.99996067
_cell_angle_beta   59.99999654
_cell_angle_gamma   60.00000151
_symmetry_Int_Tables_number   1
_chemical_formula_structural   ZrSnPd
_chemical_formula_sum   'Zr1 Sn1 Pd1'
_cell_volume   65.70159643
_cell_formula_units_Z   1
loop_
 _symmetry_equiv_pos_site_id
 _symmetry_equiv_pos_as_xyz
  1  'x, y, z'
loop_
 _atom_site_type_symbol
 _atom_site_label
 _atom_site_symmetry_multiplicity
 _atom_site_fract_x
 _atom_site_fract_y
 _atom_site_fract_z
 _atom_site_occupancy
  Zr  Zr0  1  0.50000000  0.50000015  0.49999987  1
  Sn  Sn1  1  0.00000002  0.99999980  0.00000013  1
  Pd  Pd2  1  0.24999998  0.25000004  0.25000000  1
