# generated using pymatgen
data_YN
_symmetry_space_group_name_H-M   'P 1'
_cell_length_a   4.03987098
_cell_length_b   4.03987098
_cell_length_c   4.92983405
_cell_angle_alpha   90.00000000
_cell_angle_beta   90.00000000
_cell_angle_gamma   119.99999998
_symmetry_Int_Tables_number   1
_chemical_formula_structural   YN
_chemical_formula_sum   'Y2 N2'
_cell_volume   69.67836045
_cell_formula_units_Z   2
loop_
 _symmetry_equiv_pos_site_id
 _symmetry_equiv_pos_as_xyz
  1  'x, y, z'
loop_
 _atom_site_type_symbol
 _atom_site_label
 _atom_site_symmetry_multiplicity
 _atom_site_fract_x
 _atom_site_fract_y
 _atom_site_fract_z
 _atom_site_occupancy
  N  N0  1  0.66666667  0.33333333  0.94358597  1
  N  N1  1  0.33333333  0.66666667  0.44358597  1
  Y  Y2  1  0.66666667  0.33333333  0.44391403  1
  Y  Y3  1  0.33333333  0.66666667  0.94391403  1
