# generated using pymatgen
data_LiGeBO4
_symmetry_space_group_name_H-M   'P 1'
_cell_length_a   4.56149343
_cell_length_b   4.56149343
_cell_length_c   4.75614414
_cell_angle_alpha   118.65516189
_cell_angle_beta   118.65516200
_cell_angle_gamma   90.00000002
_symmetry_Int_Tables_number   1
_chemical_formula_structural   LiGeBO4
_chemical_formula_sum   'Li1 Ge1 B1 O4'
_cell_volume   72.72800154
_cell_formula_units_Z   1
loop_
 _symmetry_equiv_pos_site_id
 _symmetry_equiv_pos_as_xyz
  1  'x, y, z'
loop_
 _atom_site_type_symbol
 _atom_site_label
 _atom_site_symmetry_multiplicity
 _atom_site_fract_x
 _atom_site_fract_y
 _atom_site_fract_z
 _atom_site_occupancy
  Li  Li0  1  0.50000000  0.50000000  0.00000000  1
  B  B1  1  0.25000000  0.75000000  0.50000000  1
  O  O2  1  0.15442087  0.69933581  0.73480346  1
  O  O3  1  0.58038260  0.03546765  0.73480346  1
  O  O4  1  0.96453235  0.84557913  0.26519654  1
  O  O5  1  0.30066419  0.41961740  0.26519654  1
  Ge  Ge6  1  0.00000000  0.00000000  0.00000000  1
