# generated using pymatgen
data_Ag3SI
_symmetry_space_group_name_H-M   'P 1'
_cell_length_a   5.12078443
_cell_length_b   4.92517767
_cell_length_c   4.89205413
_cell_angle_alpha   91.28081257
_cell_angle_beta   90.59652885
_cell_angle_gamma   89.94357995
_symmetry_Int_Tables_number   1
_chemical_formula_structural   Ag3SI
_chemical_formula_sum   'Ag3 S1 I1'
_cell_volume   123.34384035
_cell_formula_units_Z   1
loop_
 _symmetry_equiv_pos_site_id
 _symmetry_equiv_pos_as_xyz
  1  'x, y, z'
loop_
 _atom_site_type_symbol
 _atom_site_label
 _atom_site_symmetry_multiplicity
 _atom_site_fract_x
 _atom_site_fract_y
 _atom_site_fract_z
 _atom_site_occupancy
  Ag  Ag0  1  0.06969373  0.92425654  0.02318026  1
  Ag  Ag1  1  0.72315588  0.42700616  0.03310223  1
  Ag  Ag2  1  0.49376119  0.80264068  0.46032944  1
  S  S3  1  0.56713274  0.92576207  0.96583135  1
  I  I4  1  0.07825645  0.38633355  0.51755671  1
