# generated using pymatgen
data_AgNO3
_symmetry_space_group_name_H-M   'P 1'
_cell_length_a   4.15183603
_cell_length_b   4.15183604
_cell_length_c   4.15183603
_cell_angle_alpha   77.22416135
_cell_angle_beta   77.22416130
_cell_angle_gamma   77.22416139
_symmetry_Int_Tables_number   1
_chemical_formula_structural   AgNO3
_chemical_formula_sum   'Ag1 N1 O3'
_cell_volume   66.94304678
_cell_formula_units_Z   1
loop_
 _symmetry_equiv_pos_site_id
 _symmetry_equiv_pos_as_xyz
  1  'x, y, z'
loop_
 _atom_site_type_symbol
 _atom_site_label
 _atom_site_symmetry_multiplicity
 _atom_site_fract_x
 _atom_site_fract_y
 _atom_site_fract_z
 _atom_site_occupancy
  N  N0  1  0.42588271  0.42588271  0.42588271  1
  O  O1  1  0.56511885  0.14051927  0.56511885  1
  O  O2  1  0.56511885  0.56511885  0.14051927  1
  O  O3  1  0.14051927  0.56511885  0.56511885  1
  Ag  Ag4  1  0.00196032  0.00196032  0.00196032  1
