# generated using pymatgen
data_PH3NF5
_symmetry_space_group_name_H-M   'P 1'
_cell_length_a   8.66335715
_cell_length_b   9.39886572
_cell_length_c   4.86667490
_cell_angle_alpha   90.00000000
_cell_angle_beta   91.34421424
_cell_angle_gamma   90.00000000
_symmetry_Int_Tables_number   1
_chemical_formula_structural   PH3NF5
_chemical_formula_sum   'P4 H12 N4 F20'
_cell_volume   396.16350657
_cell_formula_units_Z   4
loop_
 _symmetry_equiv_pos_site_id
 _symmetry_equiv_pos_as_xyz
  1  'x, y, z'
loop_
 _atom_site_type_symbol
 _atom_site_label
 _atom_site_symmetry_multiplicity
 _atom_site_fract_x
 _atom_site_fract_y
 _atom_site_fract_z
 _atom_site_occupancy
  P  P0  1  0.25108753  0.61141998  0.37758792  1
  P  P1  1  0.24891247  0.11141998  0.12241208  1
  P  P2  1  0.75108753  0.88858002  0.87758792  1
  P  P3  1  0.74891247  0.38858002  0.62241208  1
  H  H4  1  0.03091788  0.65794999  0.66452046  1
  H  H5  1  0.03308279  0.77346120  0.40403806  1
  H  H6  1  0.15093139  0.79630050  0.67606981  1
  H  H7  1  0.34906861  0.29630050  0.82393019  1
  H  H8  1  0.46908212  0.15794999  0.83547954  1
  H  H9  1  0.46691721  0.27346120  0.09596194  1
  H  H10  1  0.53308279  0.72653880  0.90403806  1
  H  H11  1  0.53091788  0.84205001  0.16452046  1
  H  H12  1  0.65093139  0.70369950  0.17606981  1
  H  H13  1  0.84906861  0.20369950  0.32393019  1
  H  H14  1  0.96691721  0.22653880  0.59596194  1
  H  H15  1  0.96908212  0.34205001  0.33547954  1
  N  N16  1  0.10090152  0.72121648  0.54848351  1
  N  N17  1  0.39909848  0.22121648  0.95151649  1
  N  N18  1  0.60090152  0.77878352  0.04848351  1
  N  N19  1  0.89909848  0.27878352  0.45151649  1
  F  F20  1  0.11492631  0.21069115  0.97359053  1
  F  F21  1  0.11039108  0.51998894  0.23480350  1
  F  F22  1  0.11999530  0.01760938  0.27311593  1
  F  F23  1  0.24316648  0.72415607  0.12154422  1
  F  F24  1  0.24791110  0.00694766  0.85591123  1
  F  F25  1  0.25208890  0.50694766  0.64408877  1
  F  F26  1  0.25683352  0.22415607  0.37845578  1
  F  F27  1  0.38507369  0.71069115  0.52640947  1
  F  F28  1  0.38000470  0.51760938  0.22688407  1
  F  F29  1  0.38960892  0.01998894  0.26519650  1
  F  F30  1  0.61039108  0.98001106  0.73480350  1
  F  F31  1  0.61999530  0.48239062  0.77311593  1
  F  F32  1  0.61492631  0.28930885  0.47359053  1
  F  F33  1  0.74316648  0.77584393  0.62154422  1
  F  F34  1  0.74791110  0.49305234  0.35591123  1
  F  F35  1  0.75208890  0.99305234  0.14408877  1
  F  F36  1  0.75683352  0.27584393  0.87845578  1
  F  F37  1  0.88000470  0.98239062  0.72688407  1
  F  F38  1  0.88960892  0.48001106  0.76519650  1
  F  F39  1  0.88507369  0.78930885  0.02640947  1
