# generated using pymatgen
data_VOF2
_symmetry_space_group_name_H-M   'P 1'
_cell_length_a   3.73424415
_cell_length_b   5.42763506
_cell_length_c   3.08566689
_cell_angle_alpha   72.81427085
_cell_angle_beta   90.01197441
_cell_angle_gamma   69.85576652
_symmetry_Int_Tables_number   1
_chemical_formula_structural   VOF2
_chemical_formula_sum   'V1 O1 F2'
_cell_volume   55.72979348
_cell_formula_units_Z   1
loop_
 _symmetry_equiv_pos_site_id
 _symmetry_equiv_pos_as_xyz
  1  'x, y, z'
loop_
 _atom_site_type_symbol
 _atom_site_label
 _atom_site_symmetry_multiplicity
 _atom_site_fract_x
 _atom_site_fract_y
 _atom_site_fract_z
 _atom_site_occupancy
  V  V0  1  0.03755027  0.99348134  0.99679093  1
  O  O1  1  0.48871256  0.99326117  0.99714425  1
  F  F2  1  0.85467996  0.25150882  0.36256996  1
  F  F3  1  0.11298021  0.73542467  0.63090486  1
