# generated using pymatgen
data_NaHF2
_symmetry_space_group_name_H-M   'P 1'
_cell_length_a   5.04911060
_cell_length_b   5.04911060
_cell_length_c   5.04911060
_cell_angle_alpha   40.83379338
_cell_angle_beta   40.83379338
_cell_angle_gamma   40.83379344
_symmetry_Int_Tables_number   1
_chemical_formula_structural   NaHF2
_chemical_formula_sum   'Na1 H1 F2'
_cell_volume   49.66648089
_cell_formula_units_Z   1
loop_
 _symmetry_equiv_pos_site_id
 _symmetry_equiv_pos_as_xyz
  1  'x, y, z'
loop_
 _atom_site_type_symbol
 _atom_site_label
 _atom_site_symmetry_multiplicity
 _atom_site_fract_x
 _atom_site_fract_y
 _atom_site_fract_z
 _atom_site_occupancy
  H  H0  1  0.50000000  0.50000000  0.50000000  1
  F  F1  1  0.58282587  0.58282587  0.58282587  1
  F  F2  1  0.41717413  0.41717413  0.41717413  1
  Na  Na3  1  0.00000000  0.00000000  0.00000000  1
