# generated using pymatgen
data_LiMn(PO3)3
_symmetry_space_group_name_H-M   'P 1'
_cell_length_a   6.36062834
_cell_length_b   6.36062880
_cell_length_c   6.36062841
_cell_angle_alpha   108.32093357
_cell_angle_beta   108.32094137
_cell_angle_gamma   108.32093999
_symmetry_Int_Tables_number   1
_chemical_formula_structural   LiMn(PO3)3
_chemical_formula_sum   'Li1 Mn1 P3 O9'
_cell_volume   206.10213933
_cell_formula_units_Z   1
loop_
 _symmetry_equiv_pos_site_id
 _symmetry_equiv_pos_as_xyz
  1  'x, y, z'
loop_
 _atom_site_type_symbol
 _atom_site_label
 _atom_site_symmetry_multiplicity
 _atom_site_fract_x
 _atom_site_fract_y
 _atom_site_fract_z
 _atom_site_occupancy
  Li  Li0  1  0.45475310  0.45475310  0.45475310  1
  Mn  Mn1  1  0.00494519  0.00494519  0.00494519  1
  P  P2  1  0.02713832  0.90602116  0.48276842  1
  P  P3  1  0.90602116  0.48276842  0.02713832  1
  P  P4  1  0.48276842  0.02713832  0.90602116  1
  O  O5  1  0.25051861  0.85656666  0.63278866  1
  O  O6  1  0.09718042  0.40191746  0.13152977  1
  O  O7  1  0.62229805  0.87957221  0.93799198  1
  O  O8  1  0.87957221  0.93799198  0.62229805  1
  O  O9  1  0.13152977  0.09718042  0.40191746  1
  O  O10  1  0.85656666  0.63278866  0.25051861  1
  O  O11  1  0.40191746  0.13152977  0.09718042  1
  O  O12  1  0.93799198  0.62229805  0.87957221  1
  O  O13  1  0.63278866  0.25051861  0.85656666  1
