# generated using pymatgen
data_Na2Zn2Si2O7
_symmetry_space_group_name_H-M   'P 1'
_cell_length_a   5.16968165
_cell_length_b   5.35358270
_cell_length_c   13.82079286
_cell_angle_alpha   90.00000000
_cell_angle_beta   90.00000000
_cell_angle_gamma   118.87003690
_symmetry_Int_Tables_number   1
_chemical_formula_structural   Na2Zn2Si2O7
_chemical_formula_sum   'Na4 Zn4 Si4 O14'
_cell_volume   334.96939182
_cell_formula_units_Z   2
loop_
 _symmetry_equiv_pos_site_id
 _symmetry_equiv_pos_as_xyz
  1  'x, y, z'
loop_
 _atom_site_type_symbol
 _atom_site_label
 _atom_site_symmetry_multiplicity
 _atom_site_fract_x
 _atom_site_fract_y
 _atom_site_fract_z
 _atom_site_occupancy
  O  O0  1  0.35173842  0.07322442  0.62901257  1
  O  O1  1  0.27851401  0.92677558  0.37098743  1
  O  O2  1  0.35173842  0.07322442  0.87098743  1
  O  O3  1  0.27851401  0.92677558  0.12901257  1
  O  O4  1  0.08226147  0.53240380  0.56335839  1
  O  O5  1  0.54985766  0.46759620  0.43664161  1
  O  O6  1  0.08226147  0.53240380  0.93664161  1
  O  O7  1  0.54985766  0.46759620  0.06335839  1
  O  O8  1  0.65144268  0.77561043  0.62598454  1
  O  O9  1  0.87583226  0.22438957  0.37401546  1
  O  O10  1  0.65144268  0.77561043  0.87401546  1
  O  O11  1  0.87583226  0.22438957  0.12598454  1
  O  O12  1  0.56278870  0.37060889  0.25000000  1
  O  O13  1  0.19217981  0.62939111  0.75000000  1
  Na  Na14  1  0.01472112  0.07216314  0.75000000  1
  Na  Na15  1  0.94255798  0.92783686  0.25000000  1
  Na  Na16  1  0.99223225  0.00000000  0.50000000  1
  Na  Na17  1  0.99223225  0.00000000  0.00000000  1
  Si  Si18  1  0.33164951  0.76060984  0.64032465  1
  Si  Si19  1  0.57103967  0.23939016  0.35967535  1
  Si  Si20  1  0.33164951  0.76060984  0.85967535  1
  Si  Si21  1  0.57103967  0.23939016  0.14032465  1
  Zn  Zn22  1  0.65721105  0.42901384  0.57999373  1
  Zn  Zn23  1  0.22819721  0.57098616  0.42000627  1
  Zn  Zn24  1  0.65721105  0.42901384  0.92000627  1
  Zn  Zn25  1  0.22819721  0.57098616  0.07999373  1
