# generated using pymatgen
data_SiS2
_symmetry_space_group_name_H-M   'P 1'
_cell_length_a   5.58515286
_cell_length_b   6.21426768
_cell_length_c   6.87759310
_cell_angle_alpha   116.85770939
_cell_angle_beta   113.95630184
_cell_angle_gamma   90.00000001
_symmetry_Int_Tables_number   1
_chemical_formula_structural   SiS2
_chemical_formula_sum   'Si2 S4'
_cell_volume   189.62100456
_cell_formula_units_Z   2
loop_
 _symmetry_equiv_pos_site_id
 _symmetry_equiv_pos_as_xyz
  1  'x, y, z'
loop_
 _atom_site_type_symbol
 _atom_site_label
 _atom_site_symmetry_multiplicity
 _atom_site_fract_x
 _atom_site_fract_y
 _atom_site_fract_z
 _atom_site_occupancy
  Si  Si0  1  0.75000000  0.00000000  0.00000000  1
  Si  Si1  1  0.25000000  0.00000000  0.00000000  1
  S  S2  1  0.89454745  0.70894672  0.78909490  1
  S  S3  1  0.10545255  0.29105328  0.21090510  1
  S  S4  1  0.60545255  0.91985183  0.21090510  1
  S  S5  1  0.39454745  0.08014817  0.78909490  1
