# generated using pymatgen
data_ErAgSe2
_symmetry_space_group_name_H-M   'P 1'
_cell_length_a   8.05159896
_cell_length_b   10.84391335
_cell_length_c   7.26470535
_cell_angle_alpha   28.87823280
_cell_angle_beta   56.34704842
_cell_angle_gamma   42.05815655
_symmetry_Int_Tables_number   1
_chemical_formula_structural   ErAgSe2
_chemical_formula_sum   'Er2 Ag2 Se4'
_cell_volume   195.96708351
_cell_formula_units_Z   2
loop_
 _symmetry_equiv_pos_site_id
 _symmetry_equiv_pos_as_xyz
  1  'x, y, z'
loop_
 _atom_site_type_symbol
 _atom_site_label
 _atom_site_symmetry_multiplicity
 _atom_site_fract_x
 _atom_site_fract_y
 _atom_site_fract_z
 _atom_site_occupancy
  Ag  Ag0  1  0.75000844  0.00002625  0.49995831  1
  Ag  Ag1  1  0.49999156  0.49997375  0.50004169  1
  Er  Er2  1  0.24994477  1.00008882  0.49991691  1
  Er  Er3  1  0.00005523  0.49991118  0.50008309  1
  Se  Se4  1  0.01367082  1.00004147  0.97255101  1
  Se  Se5  1  0.48633759  -0.00004682  0.02746015  1
  Se  Se6  1  0.23632918  0.49995853  0.02744899  1
  Se  Se7  1  0.76366241  0.50004682  0.97253985  1
