# generated using pymatgen
data_KMg(PO3)3
_symmetry_space_group_name_H-M   'P 1'
_cell_length_a   6.71764470
_cell_length_b   6.71764470
_cell_length_c   9.93288196
_cell_angle_alpha   90.00000000
_cell_angle_beta   90.00000000
_cell_angle_gamma   120.00000002
_symmetry_Int_Tables_number   1
_chemical_formula_structural   KMg(PO3)3
_chemical_formula_sum   'K2 Mg2 P6 O18'
_cell_volume   388.18608715
_cell_formula_units_Z   2
loop_
 _symmetry_equiv_pos_site_id
 _symmetry_equiv_pos_as_xyz
  1  'x, y, z'
loop_
 _atom_site_type_symbol
 _atom_site_label
 _atom_site_symmetry_multiplicity
 _atom_site_fract_x
 _atom_site_fract_y
 _atom_site_fract_z
 _atom_site_occupancy
  O  O0  1  0.07961947  0.67403813  0.62032663  1
  O  O1  1  0.32596187  0.92038053  0.37967337  1
  O  O2  1  0.32596187  0.40558135  0.62032663  1
  O  O3  1  0.59441865  0.92038053  0.62032663  1
  O  O4  1  0.32596187  0.40558135  0.87967337  1
  O  O5  1  0.59441865  0.92038053  0.87967337  1
  O  O6  1  0.07961947  0.67403813  0.87967337  1
  O  O7  1  0.59441865  0.67403813  0.12032663  1
  O  O8  1  0.07961947  0.40558135  0.12032663  1
  O  O9  1  0.07961947  0.40558135  0.37967337  1
  O  O10  1  0.23857889  0.18812109  0.25000000  1
  O  O11  1  0.94954220  0.76142111  0.25000000  1
  O  O12  1  0.81187891  0.05045780  0.25000000  1
  O  O13  1  0.81187891  0.76142111  0.75000000  1
  O  O14  1  0.94954220  0.18812109  0.75000000  1
  O  O15  1  0.23857889  0.05045780  0.75000000  1
  O  O16  1  0.32596187  0.92038053  0.12032663  1
  O  O17  1  0.59441865  0.67403813  0.37967337  1
  Mg  Mg18  1  0.33333333  0.66666667  0.50000000  1
  Mg  Mg19  1  0.33333333  0.66666667  0.00000000  1
  P  P20  1  0.06025149  0.77705655  0.75000000  1
  P  P21  1  0.06025149  0.28319495  0.25000000  1
  P  P22  1  0.71680505  0.77705655  0.25000000  1
  P  P23  1  0.22294345  0.93974851  0.25000000  1
  P  P24  1  0.22294345  0.28319495  0.75000000  1
  P  P25  1  0.71680505  0.93974851  0.75000000  1
  K  K26  1  0.66666667  0.33333333  0.50000000  1
  K  K27  1  0.66666667  0.33333333  0.00000000  1
