# generated using pymatgen
data_Yb(SmS2)2
_symmetry_space_group_name_H-M   'P 1'
_cell_length_a   7.31640308
_cell_length_b   7.31640285
_cell_length_c   7.31640263
_cell_angle_alpha   109.51664447
_cell_angle_beta   109.38040863
_cell_angle_gamma   109.51664698
_symmetry_Int_Tables_number   1
_chemical_formula_structural   Yb(SmS2)2
_chemical_formula_sum   'Yb2 Sm4 S8'
_cell_volume   301.48806351
_cell_formula_units_Z   2
loop_
 _symmetry_equiv_pos_site_id
 _symmetry_equiv_pos_as_xyz
  1  'x, y, z'
loop_
 _atom_site_type_symbol
 _atom_site_label
 _atom_site_symmetry_multiplicity
 _atom_site_fract_x
 _atom_site_fract_y
 _atom_site_fract_z
 _atom_site_occupancy
  Yb  Yb0  1  0.12500000  0.75000000  0.87500000  1
  Yb  Yb1  1  0.37500000  0.25000000  0.62500000  1
  Sm  Sm2  1  0.25000000  0.62823609  0.37823609  1
  Sm  Sm3  1  0.62176391  0.37176391  0.25000000  1
  Sm  Sm4  1  0.75000000  0.87176391  0.12176391  1
  Sm  Sm5  1  0.87823609  0.12823609  0.75000000  1
  S  S6  1  0.99841207  0.85235685  0.49776022  1
  S  S7  1  0.99776022  0.35235685  0.49841207  1
  S  S8  1  0.50158793  0.99934814  0.85394478  1
  S  S9  1  0.14605522  0.14764315  0.14540336  1
  S  S10  1  0.35394478  0.49934814  0.00158793  1
  S  S11  1  0.64540336  0.64764315  0.64605522  1
  S  S12  1  0.50223978  0.00065186  0.35459664  1
  S  S13  1  0.85459664  0.50065186  0.00223978  1
