# generated using pymatgen
data_H2O
_symmetry_space_group_name_H-M   'P 1'
_cell_length_a   4.68517813
_cell_length_b   4.73896303
_cell_length_c   7.28519529
_cell_angle_alpha   85.52213846
_cell_angle_beta   99.08736573
_cell_angle_gamma   119.62526607
_symmetry_Int_Tables_number   1
_chemical_formula_structural   H2O
_chemical_formula_sum   'H8 O4'
_cell_volume   138.84279673
_cell_formula_units_Z   4
loop_
 _symmetry_equiv_pos_site_id
 _symmetry_equiv_pos_as_xyz
  1  'x, y, z'
loop_
 _atom_site_type_symbol
 _atom_site_label
 _atom_site_symmetry_multiplicity
 _atom_site_fract_x
 _atom_site_fract_y
 _atom_site_fract_z
 _atom_site_occupancy
  H  H0  1  0.18894196  0.57941336  0.59589307  1
  H  H1  1  0.46083872  0.92740463  -0.00475712  1
  H  H2  1  0.40125804  0.60068151  0.91094719  1
  H  H3  1  0.44371525  0.52661188  0.50293419  1
  H  H4  1  0.60952960  0.42058664  0.09589307  1
  H  H5  1  0.53343409  0.07259537  0.49524288  1
  H  H6  1  0.80057754  0.39931849  0.41094719  1
  H  H7  1  0.91710337  0.47338812  0.00293419  1
  O  O8  1  0.33289814  0.66346055  0.49951679  1
  O  O9  1  0.31936019  0.68545668  -0.00453412  1
  O  O10  1  0.66943859  0.33653945  0.99951679  1
  O  O11  1  0.63390451  0.31454332  0.49546588  1
