# generated using pymatgen
data_Li3AlF6
_symmetry_space_group_name_H-M   'P 1'
_cell_length_a   4.94744807
_cell_length_b   8.35011580
_cell_length_c   9.67127713
_cell_angle_alpha   90.00000000
_cell_angle_beta   90.00000000
_cell_angle_gamma   90.00000000
_symmetry_Int_Tables_number   1
_chemical_formula_structural   Li3AlF6
_chemical_formula_sum   'Li12 Al4 F24'
_cell_volume   399.53752126
_cell_formula_units_Z   4
loop_
 _symmetry_equiv_pos_site_id
 _symmetry_equiv_pos_as_xyz
  1  'x, y, z'
loop_
 _atom_site_type_symbol
 _atom_site_label
 _atom_site_symmetry_multiplicity
 _atom_site_fract_x
 _atom_site_fract_y
 _atom_site_fract_z
 _atom_site_occupancy
  Li  Li0  1  0.99215176  0.14874857  0.87473533  1
  Li  Li1  1  0.00481765  0.45552929  0.10564115  1
  Li  Li2  1  0.99215176  0.35125143  0.37473533  1
  Li  Li3  1  0.50481765  0.54447071  0.89435885  1
  Li  Li4  1  0.99706773  0.04670060  0.14556402  1
  Li  Li5  1  0.49706773  0.95329940  0.85443598  1
  Li  Li6  1  0.49215176  0.85125143  0.12526467  1
  Li  Li7  1  0.49215176  0.64874857  0.62526467  1
  Li  Li8  1  0.50481765  0.95552929  0.39435885  1
  Li  Li9  1  0.49706773  0.54670060  0.35443598  1
  Li  Li10  1  0.00481765  0.04447071  0.60564115  1
  Li  Li11  1  0.99706773  0.45329940  0.64556402  1
  Al  Al12  1  0.00005395  0.75982924  0.87215293  1
  Al  Al13  1  0.50005395  0.24017076  0.12784707  1
  Al  Al14  1  0.50005395  0.25982924  0.62784707  1
  Al  Al15  1  0.00005395  0.74017076  0.37215293  1
  F  F16  1  0.30182863  0.73357201  0.26420625  1
  F  F17  1  0.36132159  0.06696135  0.22309866  1
  F  F18  1  0.69198591  0.74324675  0.47590895  1
  F  F19  1  0.64883247  0.40199948  0.02939485  1
  F  F20  1  0.14883247  0.59800052  0.97060515  1
  F  F21  1  0.82587980  0.61875782  0.75598100  1
  F  F22  1  0.69198591  0.75675325  0.97590895  1
  F  F23  1  0.64883247  0.09800052  0.52939485  1
  F  F24  1  0.19198591  0.25675325  0.52409105  1
  F  F25  1  0.32587980  0.38124218  0.24401900  1
  F  F26  1  0.16889052  0.90867373  0.98689403  1
  F  F27  1  0.14883247  0.90199948  0.47060515  1
  F  F28  1  0.16889052  0.59132627  0.48689403  1
  F  F29  1  0.36132159  0.43303865  0.72309866  1
  F  F30  1  0.30182863  0.76642799  0.76420625  1
  F  F31  1  0.86132159  0.93303865  0.77690134  1
  F  F32  1  0.66889052  0.40867373  0.51310597  1
  F  F33  1  0.32587980  0.11875782  0.74401900  1
  F  F34  1  0.86132159  0.56696135  0.27690134  1
  F  F35  1  0.19198591  0.24324675  0.02409105  1
  F  F36  1  0.80182863  0.26642799  0.73579375  1
  F  F37  1  0.66889052  0.09132627  0.01310597  1
  F  F38  1  0.80182863  0.23357201  0.23579375  1
  F  F39  1  0.82587980  0.88124218  0.25598100  1
