# generated using pymatgen
data_IO2F
_symmetry_space_group_name_H-M   'P 1'
_cell_length_a   5.62821732
_cell_length_b   5.77842225
_cell_length_c   7.96609787
_cell_angle_alpha   90.00000000
_cell_angle_beta   90.00000000
_cell_angle_gamma   90.00000000
_symmetry_Int_Tables_number   1
_chemical_formula_structural   IO2F
_chemical_formula_sum   'I4 O8 F4'
_cell_volume   259.07515712
_cell_formula_units_Z   4
loop_
 _symmetry_equiv_pos_site_id
 _symmetry_equiv_pos_as_xyz
  1  'x, y, z'
loop_
 _atom_site_type_symbol
 _atom_site_label
 _atom_site_symmetry_multiplicity
 _atom_site_fract_x
 _atom_site_fract_y
 _atom_site_fract_z
 _atom_site_occupancy
  O  O0  1  0.40773627  0.33801958  0.45281492  1
  O  O1  1  0.90773627  0.16198042  0.54718508  1
  O  O2  1  0.59226373  0.83801958  0.04718508  1
  O  O3  1  0.09226373  0.66198042  0.95281492  1
  O  O4  1  0.56001533  0.55824585  0.74148744  1
  O  O5  1  0.93998467  0.44175415  0.24148744  1
  O  O6  1  0.43998467  0.05824585  0.75851256  1
  O  O7  1  0.06001533  0.94175415  0.25851256  1
  F  F8  1  0.36721375  0.32946233  0.08754562  1
  F  F9  1  0.63278625  0.82946233  0.41245438  1
  F  F10  1  0.86721375  0.17053767  0.91245438  1
  F  F11  1  0.13278625  0.67053767  0.58754562  1
  I  I12  1  0.30328839  0.39493993  0.66152988  1
  I  I13  1  0.80328839  0.10506007  0.33847012  1
  I  I14  1  0.69671161  0.89493993  0.83847012  1
  I  I15  1  0.19671161  0.60506007  0.16152988  1
