# generated using pymatgen
data_LiH4SNO4
_symmetry_space_group_name_H-M   'P 1'
_cell_length_a   5.30718334
_cell_length_b   8.88744367
_cell_length_c   9.30868728
_cell_angle_alpha   90.00000000
_cell_angle_beta   90.00000000
_cell_angle_gamma   90.00000000
_symmetry_Int_Tables_number   1
_chemical_formula_structural   LiH4SNO4
_chemical_formula_sum   'Li4 H16 S4 N4 O16'
_cell_volume   439.06558020
_cell_formula_units_Z   4
loop_
 _symmetry_equiv_pos_site_id
 _symmetry_equiv_pos_as_xyz
  1  'x, y, z'
loop_
 _atom_site_type_symbol
 _atom_site_label
 _atom_site_symmetry_multiplicity
 _atom_site_fract_x
 _atom_site_fract_y
 _atom_site_fract_z
 _atom_site_occupancy
  Li  Li0  1  0.26224640  0.82103608  0.41329178  1
  Li  Li1  1  0.26224640  0.32103608  0.08670822  1
  Li  Li2  1  0.76224640  0.17896392  0.58670822  1
  Li  Li3  1  0.76224640  0.67896392  0.91329178  1
  H  H4  1  0.71281552  0.59621664  0.34810112  1
  H  H5  1  0.93078873  0.97939446  0.23023739  1
  H  H6  1  0.93078873  0.47939446  0.26976261  1
  H  H7  1  0.71281552  0.09621664  0.15189888  1
  H  H8  1  0.21281552  0.90378336  0.84810112  1
  H  H9  1  0.16293654  0.09363394  0.83906417  1
  H  H10  1  0.21281552  0.40378336  0.65189888  1
  H  H11  1  0.66293654  0.90636606  0.16093583  1
  H  H12  1  0.15281570  0.48756994  0.81116401  1
  H  H13  1  0.15281570  0.98756994  0.68883599  1
  H  H14  1  0.66293654  0.40636606  0.33906417  1
  H  H15  1  0.65281570  0.01243006  0.31116401  1
  H  H16  1  0.16293654  0.59363394  0.66093583  1
  H  H17  1  0.65281570  0.51243006  0.18883599  1
  H  H18  1  0.43078873  0.52060554  0.73023739  1
  H  H19  1  0.43078873  0.02060554  0.76976261  1
  S  S20  1  0.26116193  0.70577771  0.08427033  1
  S  S21  1  0.76116193  0.29422229  0.91572967  1
  S  S22  1  0.76116193  0.79422229  0.58427033  1
  S  S23  1  0.26116193  0.20577771  0.41572967  1
  N  N24  1  0.24176871  0.50074356  0.71371505  1
  N  N25  1  0.74176871  0.49925644  0.28628495  1
  N  N26  1  0.24176871  0.00074356  0.78628495  1
  N  N27  1  0.74176871  0.99925644  0.21371505  1
  O  O28  1  0.66094660  0.22408120  0.78310947  1
  O  O29  1  0.25737809  0.03960516  0.40214232  1
  O  O30  1  0.52733478  0.75713771  0.05961332  1
  O  O31  1  0.60400699  0.74732605  0.45805252  1
  O  O32  1  0.10400699  0.25267395  0.54194748  1
  O  O33  1  0.02733478  0.74286229  0.55961332  1
  O  O34  1  0.60400699  0.24732605  0.04194748  1
  O  O35  1  0.16094660  0.77591880  0.21689053  1
  O  O36  1  0.75737809  0.96039484  0.59785768  1
  O  O37  1  0.75737809  0.46039484  0.90214232  1
  O  O38  1  0.10400699  0.75267395  0.95805252  1
  O  O39  1  0.02733478  0.24286229  0.94038668  1
  O  O40  1  0.16094660  0.27591880  0.28310947  1
  O  O41  1  0.66094660  0.72408120  0.71689053  1
  O  O42  1  0.25737809  0.53960516  0.09785768  1
  O  O43  1  0.52733478  0.25713771  0.44038668  1
