# generated using pymatgen
data_SiO2
_symmetry_space_group_name_H-M   'P 1'
_cell_length_a   5.01978486
_cell_length_b   5.01978486
_cell_length_c   5.50866340
_cell_angle_alpha   90.00000000
_cell_angle_beta   90.00000000
_cell_angle_gamma   120.00000000
_symmetry_Int_Tables_number   1
_chemical_formula_structural   SiO2
_chemical_formula_sum   'Si3 O6'
_cell_volume   120.21179348
_cell_formula_units_Z   3
loop_
 _symmetry_equiv_pos_site_id
 _symmetry_equiv_pos_as_xyz
  1  'x, y, z'
loop_
 _atom_site_type_symbol
 _atom_site_label
 _atom_site_symmetry_multiplicity
 _atom_site_fract_x
 _atom_site_fract_y
 _atom_site_fract_z
 _atom_site_occupancy
  O  O0  1  0.25664700  0.41480681  0.20588152  1
  O  O1  1  0.58519319  0.84184019  0.87254818  1
  O  O2  1  0.15815981  0.74335300  0.53921485  1
  O  O3  1  0.41480681  0.25664700  0.79411848  1
  O  O4  1  0.74335300  0.15815981  0.46078515  1
  O  O5  1  0.84184019  0.58519319  0.12745182  1
  Si  Si6  1  0.52401132  0.52401132  0.00000000  1
  Si  Si7  1  0.00000000  0.47598868  0.33333333  1
  Si  Si8  1  0.47598868  0.00000000  0.66666667  1
