# generated using pymatgen
data_KLiSO4
_symmetry_space_group_name_H-M   'P 1'
_cell_length_a   5.16844716
_cell_length_b   8.95062618
_cell_length_c   9.10292815
_cell_angle_alpha   90.00000000
_cell_angle_beta   90.00000000
_cell_angle_gamma   90.00000000
_symmetry_Int_Tables_number   1
_chemical_formula_structural   KLiSO4
_chemical_formula_sum   'K4 Li4 S4 O16'
_cell_volume   421.10908866
_cell_formula_units_Z   4
loop_
 _symmetry_equiv_pos_site_id
 _symmetry_equiv_pos_as_xyz
  1  'x, y, z'
loop_
 _atom_site_type_symbol
 _atom_site_label
 _atom_site_symmetry_multiplicity
 _atom_site_fract_x
 _atom_site_fract_y
 _atom_site_fract_z
 _atom_site_occupancy
  K  K0  1  0.73398496  0.99648980  0.71149591  1
  K  K1  1  0.73398496  0.49648980  0.78850409  1
  K  K2  1  0.23398496  0.50351020  0.21149591  1
  K  K3  1  0.23398496  0.00351020  0.28850409  1
  Li  Li4  1  0.71113674  0.34197450  0.38939207  1
  Li  Li5  1  0.71113674  0.84197450  0.11060793  1
  Li  Li6  1  0.21113674  0.65802550  0.61060793  1
  Li  Li7  1  0.21113674  0.15802550  0.88939207  1
  S  S8  1  0.20711246  0.78670773  0.93096500  1
  S  S9  1  0.70711246  0.21329227  0.06903500  1
  S  S10  1  0.70711246  0.71329227  0.43096500  1
  S  S11  1  0.20711246  0.28670773  0.56903500  1
  O  O12  1  0.92925733  0.75105117  0.96075205  1
  O  O13  1  0.85647101  0.22685961  0.92860250  1
  O  O14  1  0.23093302  0.44101807  0.62816382  1
  O  O15  1  0.80880447  0.82131278  0.32098992  1
  O  O16  1  0.42925733  0.74894883  0.46075205  1
  O  O17  1  0.35647101  0.77314039  0.07139750  1
  O  O18  1  0.80880447  0.32131278  0.17901008  1
  O  O19  1  0.23093302  0.94101807  0.87183618  1
  O  O20  1  0.35647101  0.27314039  0.42860250  1
  O  O21  1  0.30880447  0.17868722  0.67901008  1
  O  O22  1  0.85647101  0.72685961  0.57139750  1
  O  O23  1  0.30880447  0.67868722  0.82098992  1
  O  O24  1  0.92925733  0.25105117  0.53924795  1
  O  O25  1  0.42925733  0.24894883  0.03924795  1
  O  O26  1  0.73093302  0.55898193  0.37183618  1
  O  O27  1  0.73093302  0.05898193  0.12816382  1
