# generated using pymatgen
data_Cr3Co(PO4)4
_symmetry_space_group_name_H-M   'P 1'
_cell_length_a   4.76110724
_cell_length_b   9.92565402
_cell_length_c   5.77906699
_cell_angle_alpha   90.00000000
_cell_angle_beta   90.00000000
_cell_angle_gamma   90.45746100
_symmetry_Int_Tables_number   1
_chemical_formula_structural   Cr3Co(PO4)4
_chemical_formula_sum   'Cr3 Co1 P4 O16'
_cell_volume   273.09326045
_cell_formula_units_Z   1
loop_
 _symmetry_equiv_pos_site_id
 _symmetry_equiv_pos_as_xyz
  1  'x, y, z'
loop_
 _atom_site_type_symbol
 _atom_site_label
 _atom_site_symmetry_multiplicity
 _atom_site_fract_x
 _atom_site_fract_y
 _atom_site_fract_z
 _atom_site_occupancy
  Cr  Cr0  1  0.47364431  0.22944830  0.75000000  1
  Cr  Cr1  1  0.52784278  0.77261005  0.25000000  1
  Cr  Cr2  1  0.97445545  0.27043281  0.25000000  1
  Co  Co3  1  0.05301179  0.72299265  0.75000000  1
  P  P4  1  0.07774499  0.59314360  0.25000000  1
  P  P5  1  0.41475687  0.09214325  0.25000000  1
  P  P6  1  0.58851082  0.90361027  0.75000000  1
  P  P7  1  0.91781356  0.40890013  0.75000000  1
  O  O8  1  0.16929263  0.44673222  0.25000000  1
  O  O9  1  0.22949769  0.67325576  0.04471183  1
  O  O10  1  0.22949769  0.67325576  0.45528817  1
  O  O11  1  0.23464756  0.39055607  0.75000000  1
  O  O12  1  0.26427142  0.88917369  0.75000000  1
  O  O13  1  0.26613056  0.17174993  0.04417807  1
  O  O14  1  0.26613056  0.17174993  0.45582193  1
  O  O15  1  0.32594683  0.94548367  0.25000000  1
  O  O16  1  0.66349279  0.05367042  0.75000000  1
  O  O17  1  0.73105542  0.82888043  0.54195377  1
  O  O18  1  0.73105542  0.82888043  0.95804623  1
  O  O19  1  0.73211082  0.10952943  0.25000000  1
  O  O20  1  0.76181892  0.60852896  0.25000000  1
  O  O21  1  0.76683569  0.32927153  0.54440914  1
  O  O22  1  0.76683569  0.32927153  0.95559086  1
  O  O23  1  0.83359875  0.55672816  0.75000000  1
