# generated using pymatgen
data_LiZnBO3
_symmetry_space_group_name_H-M   'P 1'
_cell_length_a   5.06329168
_cell_length_b   5.06515386
_cell_length_c   11.50326481
_cell_angle_alpha   90.02246760
_cell_angle_beta   90.57292670
_cell_angle_gamma   60.02498252
_symmetry_Int_Tables_number   1
_chemical_formula_structural   LiZnBO3
_chemical_formula_sum   'Li4 Zn4 B4 O12'
_cell_volume   255.53992647
_cell_formula_units_Z   4
loop_
 _symmetry_equiv_pos_site_id
 _symmetry_equiv_pos_as_xyz
  1  'x, y, z'
loop_
 _atom_site_type_symbol
 _atom_site_label
 _atom_site_symmetry_multiplicity
 _atom_site_fract_x
 _atom_site_fract_y
 _atom_site_fract_z
 _atom_site_occupancy
  Li  Li0  1  0.35532477  0.65187526  0.46762765  1
  Li  Li1  1  0.34950115  0.63104139  0.28306016  1
  Li  Li2  1  0.67141791  0.35952639  0.68615848  1
  Li  Li3  1  0.65658117  0.35088142  0.06434200  1
  Zn  Zn4  1  0.00194715  0.66912668  0.66032449  1
  Zn  Zn5  1  0.67990567  0.98099349  0.87708725  1
  Zn  Zn6  1  0.00473363  0.32277304  0.37452356  1
  Zn  Zn7  1  0.30438274  0.01532711  0.09082236  1
  B  B8  1  0.00824498  0.33036057  0.87419764  1
  B  B9  1  0.67233011  0.98899503  0.37477060  1
  B  B10  1  0.32848205  0.01961442  0.62948055  1
  B  B11  1  0.98516390  0.66729484  0.12061833  1
  O  O12  1  0.01678666  0.58672470  0.83482337  1
  O  O13  1  0.41365260  0.95564304  0.36563674  1
  O  O14  1  0.34312627  0.73672993  0.62544269  1
  O  O15  1  0.26683159  0.65515873  0.12521018  1
  O  O16  1  0.05347575  0.28128440  0.60103564  1
  O  O17  1  0.72670316  0.93876145  0.08937992  1
  O  O18  1  0.27132523  0.07878044  0.91653129  1
  O  O19  1  0.96351491  0.73092923  0.38288462  1
  O  O20  1  0.73459421  0.33235977  0.87294609  1
  O  O21  1  0.63923503  0.28013409  0.37547672  1
  O  O22  1  0.58844918  0.03334161  0.65850669  1
  O  O23  1  0.96929120  0.40734294  0.14911397  1
