# generated using pymatgen
data_NaH4ClO2
_symmetry_space_group_name_H-M   'P 1'
_cell_length_a   6.46173481
_cell_length_b   6.60376304
_cell_length_c   10.18512121
_cell_angle_alpha   90.00000000
_cell_angle_beta   90.00000000
_cell_angle_gamma   114.79884710
_symmetry_Int_Tables_number   1
_chemical_formula_structural   NaH4ClO2
_chemical_formula_sum   'Na4 H16 Cl4 O8'
_cell_volume   394.53928649
_cell_formula_units_Z   4
loop_
 _symmetry_equiv_pos_site_id
 _symmetry_equiv_pos_as_xyz
  1  'x, y, z'
loop_
 _atom_site_type_symbol
 _atom_site_label
 _atom_site_symmetry_multiplicity
 _atom_site_fract_x
 _atom_site_fract_y
 _atom_site_fract_z
 _atom_site_occupancy
  Na  Na0  1  0.97225833  0.54537802  0.83177442  1
  Na  Na1  1  0.02774167  0.95462198  0.33177442  1
  Na  Na2  1  0.02774167  0.45462198  0.16822558  1
  Na  Na3  1  0.97225833  0.04537802  0.66822558  1
  Cl  Cl4  1  0.70497698  0.79090845  0.88537776  1
  Cl  Cl5  1  0.29502302  0.70909155  0.38537776  1
  Cl  Cl6  1  0.29502302  0.20909155  0.11462224  1
  Cl  Cl7  1  0.70497698  0.29090845  0.61462224  1
  O  O8  1  0.20820421  0.82705981  0.68036491  1
  O  O9  1  0.79179579  0.67294019  0.18036491  1
  O  O10  1  0.79179579  0.17294019  0.31963509  1
  O  O11  1  0.20820421  0.32705981  0.81963509  1
  O  O12  1  0.76890874  0.76797488  0.50885770  1
  O  O13  1  0.23109126  0.73202512  0.00885770  1
  O  O14  1  0.23109126  0.23202512  0.49114230  1
  O  O15  1  0.76890874  0.26797488  0.99114230  1
  H  H16  1  0.22401006  0.77853951  0.59045918  1
  H  H17  1  0.77598994  0.72146049  0.09045918  1
  H  H18  1  0.77598994  0.22146049  0.40954082  1
  H  H19  1  0.22401006  0.27853951  0.90954082  1
  H  H20  1  0.36266399  0.93552036  0.70211772  1
  H  H21  1  0.63733601  0.56447964  0.20211772  1
  H  H22  1  0.63733601  0.06447964  0.29788228  1
  H  H23  1  0.36266399  0.43552036  0.79788228  1
  H  H24  1  0.61861797  0.75140160  0.47631682  1
  H  H25  1  0.38138203  0.74859840  0.97631682  1
  H  H26  1  0.38138203  0.24859840  0.52368318  1
  H  H27  1  0.61861797  0.25140160  0.02368318  1
  H  H28  1  0.74666906  0.61818952  0.53920874  1
  H  H29  1  0.25333094  0.88181048  0.03920874  1
  H  H30  1  0.25333094  0.38181048  0.46079126  1
  H  H31  1  0.74666906  0.11818952  0.96079126  1
