# generated using pymatgen
data_Li3SbO3
_symmetry_space_group_name_H-M   'P 1'
_cell_length_a   7.54627106
_cell_length_b   7.54627106
_cell_length_c   7.54627106
_cell_angle_alpha   109.47122063
_cell_angle_beta   109.47122063
_cell_angle_gamma   109.47122063
_symmetry_Int_Tables_number   1
_chemical_formula_structural   Li3SbO3
_chemical_formula_sum   'Li12 Sb4 O12'
_cell_volume   330.80747358
_cell_formula_units_Z   4
loop_
 _symmetry_equiv_pos_site_id
 _symmetry_equiv_pos_as_xyz
  1  'x, y, z'
loop_
 _atom_site_type_symbol
 _atom_site_label
 _atom_site_symmetry_multiplicity
 _atom_site_fract_x
 _atom_site_fract_y
 _atom_site_fract_z
 _atom_site_occupancy
  Li  Li0  1  0.53431031  0.28922471  0.00000000  1
  Li  Li1  1  0.53431031  0.00000000  0.28922471  1
  Li  Li2  1  0.75491540  0.46568969  0.46568969  1
  Li  Li3  1  0.28922471  0.00000000  0.53431031  1
  Li  Li4  1  0.28922471  0.53431031  0.00000000  1
  Li  Li5  1  0.71077529  0.24508460  0.71077529  1
  Li  Li6  1  0.71077529  0.71077529  0.24508460  1
  Li  Li7  1  0.46568969  0.75491540  0.46568969  1
  Li  Li8  1  0.46568969  0.46568969  0.75491540  1
  Li  Li9  1  0.00000000  0.53431031  0.28922471  1
  Li  Li10  1  0.00000000  0.28922471  0.53431031  1
  Li  Li11  1  0.24508460  0.71077529  0.71077529  1
  Sb  Sb12  1  0.71845199  0.00000000  0.00000000  1
  Sb  Sb13  1  0.28154801  0.28154801  0.28154801  1
  Sb  Sb14  1  0.00000000  0.71845199  0.00000000  1
  Sb  Sb15  1  0.00000000  0.00000000  0.71845199  1
  O  O16  1  0.74272328  0.23778760  0.23778760  1
  O  O17  1  0.76221240  0.50493568  0.00000000  1
  O  O18  1  0.76221240  0.00000000  0.50493568  1
  O  O19  1  0.49506432  0.49506432  0.25727672  1
  O  O20  1  0.50493568  0.76221240  0.00000000  1
  O  O21  1  0.49506432  0.25727672  0.49506432  1
  O  O22  1  0.50493568  0.00000000  0.76221240  1
  O  O23  1  0.25727672  0.49506432  0.49506432  1
  O  O24  1  0.23778760  0.23778760  0.74272328  1
  O  O25  1  0.23778760  0.74272328  0.23778760  1
  O  O26  1  0.00000000  0.50493568  0.76221240  1
  O  O27  1  0.00000000  0.76221240  0.50493568  1
