# generated using pymatgen
data_MgSiO3
_symmetry_space_group_name_H-M   'P 1'
_cell_length_a   4.87025840
_cell_length_b   10.95624593
_cell_length_c   10.13271824
_cell_angle_alpha   90.00000000
_cell_angle_beta   90.00000000
_cell_angle_gamma   90.00000000
_symmetry_Int_Tables_number   1
_chemical_formula_structural   MgSiO3
_chemical_formula_sum   'Mg8 Si8 O24'
_cell_volume   540.67929967
_cell_formula_units_Z   8
loop_
 _symmetry_equiv_pos_site_id
 _symmetry_equiv_pos_as_xyz
  1  'x, y, z'
loop_
 _atom_site_type_symbol
 _atom_site_label
 _atom_site_symmetry_multiplicity
 _atom_site_fract_x
 _atom_site_fract_y
 _atom_site_fract_z
 _atom_site_occupancy
  Mg  Mg0  1  0.28714509  0.46563373  0.97336330  1
  Mg  Mg1  1  0.65133929  0.02678345  0.25592760  1
  Mg  Mg2  1  0.84866071  0.52678345  0.75592760  1
  Mg  Mg3  1  0.15133929  0.47321655  0.25592760  1
  Mg  Mg4  1  0.71285491  0.53436627  0.47336330  1
  Mg  Mg5  1  0.21285491  0.96563373  0.47336330  1
  Mg  Mg6  1  0.78714509  0.03436627  0.97336330  1
  Mg  Mg7  1  0.34866071  0.97321655  0.75592760  1
  Si  Si8  1  0.57079124  0.32871040  0.25902186  1
  Si  Si9  1  0.07079124  0.17128960  0.25902186  1
  Si  Si10  1  0.89212624  0.66727958  0.17617406  1
  Si  Si11  1  0.39212624  0.83272042  0.17617406  1
  Si  Si12  1  0.60787376  0.16727958  0.67617406  1
  Si  Si13  1  0.42920876  0.67128960  0.75902186  1
  Si  Si14  1  0.92920876  0.82871040  0.75902186  1
  Si  Si15  1  0.10787376  0.33272042  0.67617406  1
  O  O16  1  0.41269916  0.19020288  0.27800130  1
  O  O17  1  0.47016905  0.42435626  0.37107116  1
  O  O18  1  0.92515737  0.61023785  0.32658275  1
  O  O19  1  0.43152009  0.29496392  0.65224811  1
  O  O20  1  0.58730084  0.80979712  0.77800130  1
  O  O21  1  0.93152009  0.20503608  0.65224811  1
  O  O22  1  0.93940889  0.12042670  0.12500196  1
  O  O23  1  0.43940889  0.37957330  0.12500196  1
  O  O24  1  0.97016905  0.07564374  0.37107116  1
  O  O25  1  0.56847991  0.70503608  0.15224811  1
  O  O26  1  0.02983095  0.92435626  0.87107116  1
  O  O27  1  0.08730084  0.69020288  0.77800130  1
  O  O28  1  0.42515737  0.88976215  0.32658275  1
  O  O29  1  0.06059111  0.87957330  0.62500196  1
  O  O30  1  0.98250727  0.44382625  0.58670790  1
  O  O31  1  0.01749273  0.55617375  0.08670790  1
  O  O32  1  0.56059111  0.62042670  0.62500196  1
  O  O33  1  0.57484263  0.11023785  0.82658275  1
  O  O34  1  0.52983095  0.57564374  0.87107116  1
  O  O35  1  0.06847991  0.79496392  0.15224811  1
  O  O36  1  0.51749273  0.94382625  0.08670790  1
  O  O37  1  0.91269916  0.30979712  0.27800130  1
  O  O38  1  0.07484263  0.38976215  0.82658275  1
  O  O39  1  0.48250727  0.05617375  0.58670790  1
