# generated using pymatgen
data_SrTaNO2
_symmetry_space_group_name_H-M   'P 1'
_cell_length_a   5.73254115
_cell_length_b   5.73254115
_cell_length_c   8.19214268
_cell_angle_alpha   89.84763375
_cell_angle_beta   89.84763375
_cell_angle_gamma   88.93541822
_symmetry_Int_Tables_number   1
_chemical_formula_structural   SrTaNO2
_chemical_formula_sum   'Sr4 Ta4 N4 O8'
_cell_volume   269.16208440
_cell_formula_units_Z   4
loop_
 _symmetry_equiv_pos_site_id
 _symmetry_equiv_pos_as_xyz
  1  'x, y, z'
loop_
 _atom_site_type_symbol
 _atom_site_label
 _atom_site_symmetry_multiplicity
 _atom_site_fract_x
 _atom_site_fract_y
 _atom_site_fract_z
 _atom_site_occupancy
  Sr  Sr0  1  0.00436032  0.00553955  0.24990183  1
  Sr  Sr1  1  0.50282886  0.50832212  0.24991797  1
  Sr  Sr2  1  0.49167788  0.49717114  0.75008203  1
  Sr  Sr3  1  0.99446045  0.99563968  0.75009817  1
  Ta  Ta4  1  0.99074024  0.49175136  0.49205484  1
  Ta  Ta5  1  0.00618646  0.51032515  0.00924337  1
  Ta  Ta6  1  0.48967485  0.99381354  0.99075663  1
  Ta  Ta7  1  0.50824864  0.00925976  0.50794516  1
  N  N8  1  0.22811251  0.77188749  0.00000000  1
  N  N9  1  0.47884144  0.02374065  0.74991916  1
  N  N10  1  0.97625935  0.52115856  0.25008084  1
  N  N11  1  0.77250296  0.22749704  0.50000000  1
  O  O12  1  0.22425755  0.77574245  0.50000000  1
  O  O13  1  0.52370754  0.97168717  0.25039086  1
  O  O14  1  0.02831283  0.47629246  0.74960914  1
  O  O15  1  0.27684528  0.27379634  0.02417483  1
  O  O16  1  0.72470961  0.72505345  0.52403725  1
  O  O17  1  0.27494655  0.27529039  0.47596275  1
  O  O18  1  0.72620366  0.72315472  0.97582517  1
  O  O19  1  0.77712004  0.22287996  0.00000000  1
