# generated using pymatgen
data_PtF4
_symmetry_space_group_name_H-M   'P 1'
_cell_length_a   5.60424167
_cell_length_b   5.60424167
_cell_length_c   5.69048488
_cell_angle_alpha   106.27942731
_cell_angle_beta   106.27942742
_cell_angle_gamma   115.51378036
_symmetry_Int_Tables_number   1
_chemical_formula_structural   PtF4
_chemical_formula_sum   'Pt2 F8'
_cell_volume   137.23617530
_cell_formula_units_Z   2
loop_
 _symmetry_equiv_pos_site_id
 _symmetry_equiv_pos_as_xyz
  1  'x, y, z'
loop_
 _atom_site_type_symbol
 _atom_site_label
 _atom_site_symmetry_multiplicity
 _atom_site_fract_x
 _atom_site_fract_y
 _atom_site_fract_z
 _atom_site_occupancy
  F  F0  1  0.99149731  0.76346330  0.18212286  1
  F  F1  1  0.58134044  0.80937445  0.81787714  1
  F  F2  1  0.03359639  0.30564921  0.31739223  1
  F  F3  1  0.98825698  0.71620416  0.68260777  1
  F  F4  1  0.05564921  0.28359639  0.81739223  1
  F  F5  1  0.46620416  0.23825698  0.18260777  1
  F  F6  1  0.55937445  0.83134044  0.31787714  1
  F  F7  1  0.51346330  0.24149731  0.68212286  1
  Pt  Pt8  1  0.75330889  0.25330889  0.50000000  1
  Pt  Pt9  1  0.00330889  0.00330889  1.00000000  1
