# generated using pymatgen
data_LiMnP(H6O5)2
_symmetry_space_group_name_H-M   'P 1'
_cell_length_a   6.87508858
_cell_length_b   6.17572237
_cell_length_c   11.01049639
_cell_angle_alpha   90.00000000
_cell_angle_beta   90.00000000
_cell_angle_gamma   90.00000000
_symmetry_Int_Tables_number   1
_chemical_formula_structural   LiMnP(H6O5)2
_chemical_formula_sum   'Li2 Mn2 P2 H24 O20'
_cell_volume   467.49068416
_cell_formula_units_Z   2
loop_
 _symmetry_equiv_pos_site_id
 _symmetry_equiv_pos_as_xyz
  1  'x, y, z'
loop_
 _atom_site_type_symbol
 _atom_site_label
 _atom_site_symmetry_multiplicity
 _atom_site_fract_x
 _atom_site_fract_y
 _atom_site_fract_z
 _atom_site_occupancy
  Li  Li0  1  0.00000000  0.49933010  0.93566230  1
  Li  Li1  1  0.50000000  0.50066990  0.43566230  1
  Mn  Mn2  1  0.00000000  0.38418692  0.64353395  1
  Mn  Mn3  1  0.50000000  0.61581308  0.14353395  1
  P  P4  1  0.00000000  0.00656098  0.26738971  1
  P  P5  1  0.50000000  0.99343902  0.76738971  1
  H  H6  1  0.00000000  0.74096700  0.47190027  1
  H  H7  1  0.00000000  0.83828961  0.60893750  1
  H  H8  1  0.11948838  0.98771607  0.76447166  1
  H  H9  1  0.22023534  0.21646097  0.45246557  1
  H  H10  1  0.15403618  0.82866149  0.07199258  1
  H  H11  1  0.18394018  0.62700798  0.30603033  1
  H  H12  1  0.24492737  0.37542290  0.29222294  1
  H  H13  1  0.25507263  0.62457710  0.79222294  1
  H  H14  1  0.31605982  0.37299202  0.80603033  1
  H  H15  1  0.34596382  0.17133851  0.57199258  1
  H  H16  1  0.27976466  0.78353903  0.95246557  1
  H  H17  1  0.38051162  0.01228393  0.26447166  1
  H  H18  1  0.50000000  0.16171039  0.10893750  1
  H  H19  1  0.50000000  0.25903300  0.97190027  1
  H  H20  1  0.61948838  0.01228393  0.26447166  1
  H  H21  1  0.72023534  0.78353903  0.95246557  1
  H  H22  1  0.65403618  0.17133851  0.57199258  1
  H  H23  1  0.68394018  0.37299202  0.80603033  1
  H  H24  1  0.74492737  0.62457710  0.79222294  1
  H  H25  1  0.75507263  0.37542290  0.29222294  1
  H  H26  1  0.81605982  0.62700798  0.30603033  1
  H  H27  1  0.84596382  0.82866149  0.07199258  1
  H  H28  1  0.77976466  0.21646097  0.45246557  1
  H  H29  1  0.88051162  0.98771607  0.76447166  1
  O  O30  1  0.00000000  0.99270047  0.12766441  1
  O  O31  1  0.00000000  0.77206123  0.32318899  1
  O  O32  1  0.00000000  0.04592161  0.72115310  1
  O  O33  1  0.00000000  0.70204466  0.56043720  1
  O  O34  1  0.18521526  0.12530720  0.31426618  1
  O  O35  1  0.19890231  0.47319506  0.79733531  1
  O  O36  1  0.26243021  0.28730971  0.53075172  1
  O  O37  1  0.23756979  0.71269029  0.03075172  1
  O  O38  1  0.30109769  0.52680494  0.29733531  1
  O  O39  1  0.31478474  0.87469280  0.81426618  1
  O  O40  1  0.50000000  0.00729953  0.62766441  1
  O  O41  1  0.50000000  0.22793877  0.82318899  1
  O  O42  1  0.50000000  0.29795534  0.06043720  1
  O  O43  1  0.50000000  0.95407839  0.22115310  1
  O  O44  1  0.68521526  0.87469280  0.81426618  1
  O  O45  1  0.69890231  0.52680494  0.29733531  1
  O  O46  1  0.76243021  0.71269029  0.03075172  1
  O  O47  1  0.73756979  0.28730971  0.53075172  1
  O  O48  1  0.80109769  0.47319506  0.79733531  1
  O  O49  1  0.81478474  0.12530720  0.31426618  1
