# generated using pymatgen
data_LiBiB2O5
_symmetry_space_group_name_H-M   'P 1'
_cell_length_a   5.28498572
_cell_length_b   5.28498572
_cell_length_c   3.84214699
_cell_angle_alpha   86.14324724
_cell_angle_beta   93.85675276
_cell_angle_gamma   69.94048247
_symmetry_Int_Tables_number   1
_chemical_formula_structural   LiBiB2O5
_chemical_formula_sum   'Li1 Bi1 B2 O5'
_cell_volume   100.10864354
_cell_formula_units_Z   1
loop_
 _symmetry_equiv_pos_site_id
 _symmetry_equiv_pos_as_xyz
  1  'x, y, z'
loop_
 _atom_site_type_symbol
 _atom_site_label
 _atom_site_symmetry_multiplicity
 _atom_site_fract_x
 _atom_site_fract_y
 _atom_site_fract_z
 _atom_site_occupancy
  Li  Li0  1  0.60125186  0.60125186  0.50000000  1
  Bi  Bi1  1  0.98741286  0.98741286  0.00000000  1
  B  B2  1  0.12432860  0.48958198  0.62929803  1
  B  B3  1  0.48958198  0.12432860  0.37070197  1
  O  O4  1  0.21178219  0.70002699  0.53223378  1
  O  O5  1  0.52863235  0.92890789  0.14810863  1
  O  O6  1  0.23520428  0.23520428  0.50000000  1
  O  O7  1  0.92890789  0.52863235  0.85189137  1
  O  O8  1  0.70002699  0.21178219  0.46776622  1
