# generated using pymatgen
data_NaH8SNO6
_symmetry_space_group_name_H-M   'P 1'
_cell_length_a   6.41816157
_cell_length_b   8.20977808
_cell_length_c   12.88561558
_cell_angle_alpha   90.00000000
_cell_angle_beta   90.00000000
_cell_angle_gamma   90.00000000
_symmetry_Int_Tables_number   1
_chemical_formula_structural   NaH8SNO6
_chemical_formula_sum   'Na4 H32 S4 N4 O24'
_cell_volume   678.96476072
_cell_formula_units_Z   4
loop_
 _symmetry_equiv_pos_site_id
 _symmetry_equiv_pos_as_xyz
  1  'x, y, z'
loop_
 _atom_site_type_symbol
 _atom_site_label
 _atom_site_symmetry_multiplicity
 _atom_site_fract_x
 _atom_site_fract_y
 _atom_site_fract_z
 _atom_site_occupancy
  S  S0  1  0.37468921  0.09321528  0.12647796  1
  S  S1  1  0.87468921  0.40678472  0.87352204  1
  S  S2  1  0.62531079  0.59321528  0.37352204  1
  S  S3  1  0.12531079  0.90678472  0.62647796  1
  Na  Na4  1  0.91777603  0.26598955  0.48458602  1
  Na  Na5  1  0.41777603  0.23401045  0.51541398  1
  Na  Na6  1  0.08222397  0.76598955  0.01541398  1
  Na  Na7  1  0.58222397  0.73401045  0.98458602  1
  O  O8  1  0.19707526  0.07936829  0.20209163  1
  O  O9  1  0.69707526  0.42063171  0.79790837  1
  O  O10  1  0.80292474  0.57936829  0.29790837  1
  O  O11  1  0.30292474  0.92063171  0.70209163  1
  O  O12  1  0.57744901  0.07214201  0.18422151  1
  O  O13  1  0.07744901  0.42785799  0.81577849  1
  O  O14  1  0.42255099  0.57214201  0.31577849  1
  O  O15  1  0.92255099  0.92785799  0.68422151  1
  O  O16  1  0.37071649  0.25600588  0.07695788  1
  O  O17  1  0.87071649  0.24399412  0.92304212  1
  O  O18  1  0.62928351  0.75600588  0.42304212  1
  O  O19  1  0.12928351  0.74399412  0.57695788  1
  O  O20  1  0.14394622  0.03406130  0.54473548  1
  O  O21  1  0.64394622  0.46593870  0.45526452  1
  O  O22  1  0.85605378  0.53406130  0.95526452  1
  O  O23  1  0.35605378  0.96593870  0.04473548  1
  O  O24  1  0.69906724  0.20606216  0.63321593  1
  O  O25  1  0.19906724  0.29393784  0.36678407  1
  O  O26  1  0.30093276  0.70606216  0.86678407  1
  O  O27  1  0.80093276  0.79393784  0.13321593  1
  O  O28  1  0.66133954  0.08522865  0.39934654  1
  O  O29  1  0.16133954  0.41477135  0.60065346  1
  O  O30  1  0.33866046  0.58522865  0.10065346  1
  O  O31  1  0.83866046  0.91477135  0.89934654  1
  N  N32  1  0.36964715  0.17649672  0.85084302  1
  N  N33  1  0.86964715  0.32350328  0.14915698  1
  N  N34  1  0.63035285  0.67649672  0.64915698  1
  N  N35  1  0.13035285  0.82350328  0.35084302  1
  H  H36  1  0.72799000  0.89466016  0.15496883  1
  H  H37  1  0.22799000  0.60533984  0.84503117  1
  H  H38  1  0.27201000  0.39466016  0.34503117  1
  H  H39  1  0.77201000  0.10533984  0.65496883  1
  H  H40  1  0.78825792  0.71738157  0.19225411  1
  H  H41  1  0.28825792  0.78261843  0.80774589  1
  H  H42  1  0.21174208  0.21738157  0.30774589  1
  H  H43  1  0.71174208  0.28261843  0.69225411  1
  H  H44  1  0.37862073  0.59317216  0.17447373  1
  H  H45  1  0.87862073  0.90682784  0.82552627  1
  H  H46  1  0.62137927  0.09317216  0.32552627  1
  H  H47  1  0.12137927  0.40682784  0.67447373  1
  H  H48  1  0.34277227  0.46639819  0.08798334  1
  H  H49  1  0.84277227  0.03360181  0.91201666  1
  H  H50  1  0.65722773  0.96639819  0.41201666  1
  H  H51  1  0.15722773  0.53360181  0.58798334  1
  H  H52  1  0.85561160  0.40801953  0.20915143  1
  H  H53  1  0.35561160  0.09198047  0.79084857  1
  H  H54  1  0.14438840  0.90801953  0.29084857  1
  H  H55  1  0.64438840  0.59198047  0.70915143  1
  H  H56  1  0.86736884  0.38270446  0.07819081  1
  H  H57  1  0.36736884  0.11729554  0.92180919  1
  H  H58  1  0.13263116  0.88270446  0.42180919  1
  H  H59  1  0.63263116  0.61729554  0.57819081  1
  H  H60  1  0.00562910  0.25653358  0.15651752  1
  H  H61  1  0.50562910  0.24346642  0.84348248  1
  H  H62  1  0.99437090  0.75653358  0.34348248  1
  H  H63  1  0.49437090  0.74346642  0.65651752  1
  H  H64  1  0.74647938  0.24035030  0.15296857  1
  H  H65  1  0.24647938  0.25964970  0.84703143  1
  H  H66  1  0.25352062  0.74035030  0.34703143  1
  H  H67  1  0.75352062  0.75964970  0.65296857  1
