# generated using pymatgen
data_Ca4SnS6
_symmetry_space_group_name_H-M   'P 1'
_cell_length_a   7.52057710
_cell_length_b   7.67673421
_cell_length_c   13.11221191
_cell_angle_alpha   76.05961427
_cell_angle_beta   73.33486815
_cell_angle_gamma   60.67064691
_symmetry_Int_Tables_number   1
_chemical_formula_structural   Ca4SnS6
_chemical_formula_sum   'Ca8 Sn2 S12'
_cell_volume   627.66883234
_cell_formula_units_Z   2
loop_
 _symmetry_equiv_pos_site_id
 _symmetry_equiv_pos_as_xyz
  1  'x, y, z'
loop_
 _atom_site_type_symbol
 _atom_site_label
 _atom_site_symmetry_multiplicity
 _atom_site_fract_x
 _atom_site_fract_y
 _atom_site_fract_z
 _atom_site_occupancy
  Ca  Ca0  1  0.69299265  0.52865897  0.86194849  1
  Ca  Ca1  1  0.91639989  0.02865897  0.36194849  1
  Ca  Ca2  1  0.22907277  0.23975953  0.04334119  1
  Ca  Ca3  1  0.48782651  0.73975953  0.54334119  1
  Ca  Ca4  1  0.05127368  0.82466475  0.85589831  1
  Ca  Ca5  1  0.26816326  0.32466475  0.35589831  1
  Ca  Ca6  1  0.35203733  0.22908049  0.70490545  1
  Ca  Ca7  1  0.71397673  0.72908049  0.20490545  1
  Sn  Sn8  1  0.31977673  0.69424668  0.10922583  1
  Sn  Sn9  1  0.87675076  0.19424668  0.60922583  1
  S  S10  1  0.59874641  0.95399297  0.36422795  1
  S  S11  1  0.08303268  0.45399297  0.86422795  1
  S  S12  1  0.54860794  0.84774723  0.01706495  1
  S  S13  1  0.58657988  0.34774723  0.51706495  1
  S  S14  1  0.51129482  0.36492094  0.05282183  1
  S  S15  1  0.07096241  0.86492094  0.55282183  1
  S  S16  1  0.04442231  0.40527959  0.56680670  1
  S  S17  1  0.98349139  0.90527959  0.06680670  1
  S  S18  1  0.00535880  0.33575188  0.24361005  1
  S  S19  1  0.41527926  0.83575188  0.74361005  1
  S  S20  1  0.71297331  0.18229696  0.79594926  1
  S  S21  1  0.30878047  0.68229696  0.29594926  1
