# generated using pymatgen
data_BaZn2(BO3)2
_symmetry_space_group_name_H-M   'P 1'
_cell_length_a   4.98611308
_cell_length_b   9.48278748
_cell_length_c   12.28349080
_cell_angle_alpha   90.00000000
_cell_angle_beta   90.00000000
_cell_angle_gamma   90.00000000
_symmetry_Int_Tables_number   1
_chemical_formula_structural   BaZn2(BO3)2
_chemical_formula_sum   'Ba4 Zn8 B8 O24'
_cell_volume   580.79109134
_cell_formula_units_Z   4
loop_
 _symmetry_equiv_pos_site_id
 _symmetry_equiv_pos_as_xyz
  1  'x, y, z'
loop_
 _atom_site_type_symbol
 _atom_site_label
 _atom_site_symmetry_multiplicity
 _atom_site_fract_x
 _atom_site_fract_y
 _atom_site_fract_z
 _atom_site_occupancy
  Ba  Ba0  1  0.96964272  0.89859206  0.27102860  1
  Ba  Ba1  1  0.46964272  0.60140794  0.72897140  1
  Ba  Ba2  1  0.53035728  0.10140794  0.77102860  1
  Ba  Ba3  1  0.03035728  0.39859206  0.22897140  1
  Zn  Zn4  1  0.54665972  0.13180255  0.10482514  1
  Zn  Zn5  1  0.95334028  0.86819745  0.60482514  1
  Zn  Zn6  1  0.05386779  0.15822016  0.46867260  1
  Zn  Zn7  1  0.44613221  0.84177984  0.96867260  1
  Zn  Zn8  1  0.45334028  0.63180255  0.39517486  1
  Zn  Zn9  1  0.94613221  0.65822016  0.03132740  1
  Zn  Zn10  1  0.04665972  0.36819745  0.89517486  1
  Zn  Zn11  1  0.55386779  0.34177984  0.53132740  1
  B  B12  1  0.55827177  0.40999083  0.00615049  1
  B  B13  1  0.53457533  0.16680900  0.33384426  1
  B  B14  1  0.96542467  0.83319100  0.83384426  1
  B  B15  1  0.05827177  0.09000917  0.99384951  1
  B  B16  1  0.46542467  0.66680900  0.16615574  1
  B  B17  1  0.94172823  0.59000917  0.50615049  1
  B  B18  1  0.44172823  0.90999083  0.49384951  1
  B  B19  1  0.03457533  0.33319100  0.66615574  1
  O  O20  1  0.38214932  0.24932013  0.40704707  1
  O  O21  1  0.18915823  0.66827958  0.15770919  1
  O  O22  1  0.09429409  0.90607721  0.75295507  1
  O  O23  1  0.91376954  0.06300561  0.08662458  1
  O  O24  1  0.03876308  0.66515093  0.59380230  1
  O  O25  1  0.11785068  0.75067987  0.90704707  1
  O  O26  1  0.40570591  0.09392279  0.25295507  1
  O  O27  1  0.81084177  0.16827958  0.34229081  1
  O  O28  1  0.31084177  0.33172042  0.65770919  1
  O  O29  1  0.88214932  0.25067987  0.59295293  1
  O  O30  1  0.41376954  0.43699439  0.91337542  1
  O  O31  1  0.68915823  0.83172042  0.84229081  1
  O  O32  1  0.53876308  0.83484907  0.40619770  1
  O  O33  1  0.08623046  0.56300561  0.41337542  1
  O  O34  1  0.67201640  0.53966577  0.51259725  1
  O  O35  1  0.59429409  0.59392279  0.24704493  1
  O  O36  1  0.17201640  0.96033423  0.48740275  1
  O  O37  1  0.96123692  0.16515093  0.90619770  1
  O  O38  1  0.58623046  0.93699439  0.58662458  1
  O  O39  1  0.61785068  0.74932013  0.09295293  1
  O  O40  1  0.82798360  0.46033423  0.01259725  1
  O  O41  1  0.46123692  0.33484907  0.09380230  1
  O  O42  1  0.32798360  0.03966577  0.98740275  1
  O  O43  1  0.90570591  0.40607721  0.74704493  1
