# generated using pymatgen
data_In2Cu2SiS6
_symmetry_space_group_name_H-M   'P 1'
_cell_length_a   6.86166371
_cell_length_b   6.90743471
_cell_length_c   11.99801351
_cell_angle_alpha   74.20111356
_cell_angle_beta   73.38041652
_cell_angle_gamma   60.23055925
_symmetry_Int_Tables_number   1
_chemical_formula_structural   In2Cu2SiS6
_chemical_formula_sum   'In4 Si2 Cu4 S12'
_cell_volume   467.16104016
_cell_formula_units_Z   2
loop_
 _symmetry_equiv_pos_site_id
 _symmetry_equiv_pos_as_xyz
  1  'x, y, z'
loop_
 _atom_site_type_symbol
 _atom_site_label
 _atom_site_symmetry_multiplicity
 _atom_site_fract_x
 _atom_site_fract_y
 _atom_site_fract_z
 _atom_site_occupancy
  In  In0  1  0.69903958  0.27670279  0.55874972  1
  In  In1  1  0.68840251  0.23003313  0.25333907  1
  In  In2  1  0.82823087  0.73026798  0.75309130  1
  In  In3  1  0.46595114  0.77602224  0.05882684  1
  Si  Si4  1  0.06983393  0.34222785  0.99554670  1
  Cu  Cu5  1  0.18653141  0.79988346  0.40306223  1
  Cu  Cu6  1  0.98586552  0.54838188  0.25358816  1
  Si  Si7  1  0.59217839  0.84235784  0.49553444  1
  Cu  Cu8  1  0.61083837  0.29974443  0.90318754  1
  Cu  Cu9  1  0.21248453  0.04798006  0.75379164  1
  S  S10  1  0.84999264  0.09126612  0.75109657  1
  S  S11  1  0.64829225  0.87265096  0.30916393  1
  S  S12  1  0.96817008  0.20494444  0.36261642  1
  S  S13  1  0.88769889  0.14977133  0.04517455  1
  S  S14  1  0.91712170  0.64965520  0.54507304  1
  S  S15  1  0.30775265  0.59107235  0.25115241  1
  S  S16  1  0.46435229  0.70493215  0.86260112  1
  S  S17  1  0.88817269  0.65260902  0.06056112  1
  S  S18  1  0.16963397  0.37281147  0.80917596  1
  S  S19  1  0.39875420  0.15265486  0.56060586  1
  S  S20  1  0.38313749  0.67431742  0.55965303  1
  S  S21  1  0.38276490  0.17411300  0.05960835  1
