# generated using pymatgen
data_OsOF4
_symmetry_space_group_name_H-M   'P 1'
_cell_length_a   5.78612339
_cell_length_b   9.82281651
_cell_length_c   13.15651642
_cell_angle_alpha   90.00000000
_cell_angle_beta   90.00000000
_cell_angle_gamma   90.00000000
_symmetry_Int_Tables_number   1
_chemical_formula_structural   OsOF4
_chemical_formula_sum   'Os8 O8 F32'
_cell_volume   747.76414042
_cell_formula_units_Z   8
loop_
 _symmetry_equiv_pos_site_id
 _symmetry_equiv_pos_as_xyz
  1  'x, y, z'
loop_
 _atom_site_type_symbol
 _atom_site_label
 _atom_site_symmetry_multiplicity
 _atom_site_fract_x
 _atom_site_fract_y
 _atom_site_fract_z
 _atom_site_occupancy
  Os  Os0  1  0.64553115  0.99008177  0.48584522  1
  Os  Os1  1  0.85446885  0.00991823  0.98584522  1
  Os  Os2  1  0.89501466  0.26813400  0.29997390  1
  Os  Os3  1  0.39501466  0.23186600  0.70002610  1
  Os  Os4  1  0.60498534  0.73186600  0.79997390  1
  Os  Os5  1  0.10498534  0.76813400  0.20002610  1
  Os  Os6  1  0.14553115  0.50991823  0.51415478  1
  Os  Os7  1  0.35446885  0.49008177  0.01415478  1
  O  O8  1  0.10374010  0.42770218  0.97040505  1
  O  O9  1  0.86231472  0.68057915  0.22503205  1
  O  O10  1  0.63768528  0.31942085  0.72503205  1
  O  O11  1  0.89625990  0.92770218  0.52959495  1
  O  O12  1  0.39625990  0.57229782  0.47040505  1
  O  O13  1  0.60374010  0.07229782  0.02959495  1
  O  O14  1  0.13768528  0.18057915  0.27496795  1
  O  O15  1  0.36231472  0.81942085  0.77496795  1
  F  F16  1  0.58918935  0.61189788  0.05268798  1
  F  F17  1  0.41081065  0.11189788  0.44731202  1
  F  F18  1  0.60198338  0.08918628  0.62561413  1
  F  F19  1  0.37199039  0.40605946  0.14271425  1
  F  F20  1  0.17485514  0.33852093  0.76891792  1
  F  F21  1  0.91081065  0.38810212  0.55268798  1
  F  F22  1  0.10854600  0.89138743  0.31018622  1
  F  F23  1  0.89145400  0.39138743  0.18981378  1
  F  F24  1  0.10198338  0.41081372  0.37438587  1
  F  F25  1  0.65096990  0.84819591  0.92924077  1
  F  F26  1  0.82514486  0.83852093  0.73108208  1
  F  F27  1  0.15931593  0.12999978  0.63761032  1
  F  F28  1  0.67485514  0.16147907  0.23108208  1
  F  F29  1  0.06992911  0.13842505  0.03436085  1
  F  F30  1  0.65931593  0.37000022  0.36238968  1
  F  F31  1  0.34068407  0.87000022  0.13761032  1
  F  F32  1  0.89801662  0.91081372  0.12561413  1
  F  F33  1  0.87199039  0.09394054  0.85728575  1
  F  F34  1  0.60854600  0.60861257  0.68981378  1
  F  F35  1  0.12800961  0.59394054  0.64271425  1
  F  F36  1  0.32514486  0.66147907  0.26891792  1
  F  F37  1  0.08918935  0.88810212  0.94731202  1
  F  F38  1  0.43007089  0.86157495  0.53436085  1
  F  F39  1  0.15096990  0.65180409  0.07075923  1
  F  F40  1  0.93007089  0.63842505  0.46563915  1
  F  F41  1  0.39801662  0.58918628  0.87438587  1
  F  F42  1  0.34903010  0.34819591  0.57075923  1
  F  F43  1  0.84068407  0.62999978  0.86238968  1
  F  F44  1  0.62800961  0.90605946  0.35728575  1
  F  F45  1  0.56992911  0.36157495  0.96563915  1
  F  F46  1  0.39145400  0.10861257  0.81018622  1
  F  F47  1  0.84903010  0.15180409  0.42924077  1
