# generated using pymatgen
data_BaCu(SeO3)2
_symmetry_space_group_name_H-M   'P 1'
_cell_length_a   5.38763151
_cell_length_b   9.06316003
_cell_length_c   13.57581925
_cell_angle_alpha   90.00000000
_cell_angle_beta   90.00000000
_cell_angle_gamma   90.00000000
_symmetry_Int_Tables_number   1
_chemical_formula_structural   BaCu(SeO3)2
_chemical_formula_sum   'Ba4 Cu4 Se8 O24'
_cell_volume   662.89322415
_cell_formula_units_Z   4
loop_
 _symmetry_equiv_pos_site_id
 _symmetry_equiv_pos_as_xyz
  1  'x, y, z'
loop_
 _atom_site_type_symbol
 _atom_site_label
 _atom_site_symmetry_multiplicity
 _atom_site_fract_x
 _atom_site_fract_y
 _atom_site_fract_z
 _atom_site_occupancy
  Ba  Ba0  1  0.00041388  0.75102384  0.29834475  1
  Ba  Ba1  1  0.99958612  0.25102384  0.20165525  1
  Ba  Ba2  1  0.00041388  0.75102384  0.70165525  1
  Ba  Ba3  1  0.99958612  0.25102384  0.79834475  1
  Cu  Cu4  1  0.54299188  0.04647242  0.63105606  1
  Cu  Cu5  1  0.45700812  0.54647242  0.86894394  1
  Cu  Cu6  1  0.45700812  0.54647242  0.13105606  1
  Cu  Cu7  1  0.54299188  0.04647242  0.36894394  1
  Se  Se8  1  0.52651345  0.23065420  0.00000000  1
  Se  Se9  1  0.50352971  0.91886941  0.85703335  1
  Se  Se10  1  0.50352971  0.91886941  0.14296665  1
  Se  Se11  1  0.08250985  0.16115633  0.50000000  1
  Se  Se12  1  0.47348655  0.73065420  0.50000000  1
  Se  Se13  1  0.49647029  0.41886941  0.35703335  1
  Se  Se14  1  0.49647029  0.41886941  0.64296665  1
  Se  Se15  1  0.91749015  0.66115633  0.00000000  1
  O  O16  1  0.20960330  0.96598124  0.82489559  1
  O  O17  1  0.68752750  0.00184483  0.23296922  1
  O  O18  1  0.20960330  0.96598124  0.17510441  1
  O  O19  1  0.31247250  0.50184483  0.26703078  1
  O  O20  1  0.45469743  0.33419678  0.89577114  1
  O  O21  1  0.59429556  0.60189813  0.00000000  1
  O  O22  1  0.40570444  0.10189813  0.50000000  1
  O  O23  1  0.84194864  0.22068621  0.00000000  1
  O  O24  1  0.15805136  0.72068621  0.50000000  1
  O  O25  1  0.79039670  0.46598124  0.32489559  1
  O  O26  1  0.02599613  0.57264633  0.89805527  1
  O  O27  1  0.02599613  0.57264633  0.10194473  1
  O  O28  1  0.46950763  0.23941771  0.68837933  1
  O  O29  1  0.79039670  0.46598124  0.67510441  1
  O  O30  1  0.68752750  0.00184483  0.76703078  1
  O  O31  1  0.53049237  0.73941771  0.18837933  1
  O  O32  1  0.97400387  0.07264633  0.60194473  1
  O  O33  1  0.45469743  0.33419678  0.10422886  1
  O  O34  1  0.46950763  0.23941771  0.31162067  1
  O  O35  1  0.31247250  0.50184483  0.73296922  1
  O  O36  1  0.53049237  0.73941771  0.81162067  1
  O  O37  1  0.97400387  0.07264633  0.39805527  1
  O  O38  1  0.54530257  0.83419678  0.60422886  1
  O  O39  1  0.54530257  0.83419678  0.39577114  1
