# generated using pymatgen
data_H9BrO4
_symmetry_space_group_name_H-M   'P 1'
_cell_length_a   7.12632169
_cell_length_b   11.80375752
_cell_length_c   7.09512558
_cell_angle_alpha   90.00000000
_cell_angle_beta   109.29336750
_cell_angle_gamma   90.00000000
_symmetry_Int_Tables_number   1
_chemical_formula_structural   H9BrO4
_chemical_formula_sum   'H36 Br4 O16'
_cell_volume   563.30525392
_cell_formula_units_Z   4
loop_
 _symmetry_equiv_pos_site_id
 _symmetry_equiv_pos_as_xyz
  1  'x, y, z'
loop_
 _atom_site_type_symbol
 _atom_site_label
 _atom_site_symmetry_multiplicity
 _atom_site_fract_x
 _atom_site_fract_y
 _atom_site_fract_z
 _atom_site_occupancy
  H  H0  1  0.33000770  0.33366942  0.99682775  1
  H  H1  1  0.14842271  0.26353001  0.01532722  1
  H  H2  1  0.85157729  0.76353001  0.98467278  1
  H  H3  1  0.66999230  0.83366942  0.00317225  1
  H  H4  1  0.97696545  0.19090072  0.17034851  1
  H  H5  1  0.84219869  0.26436081  0.99520398  1
  H  H6  1  0.02303455  0.69090072  0.82965149  1
  H  H7  1  0.15780131  0.76436081  0.00479602  1
  H  H8  1  0.54815616  0.17108141  0.81440078  1
  H  H9  1  0.53448549  0.30414804  0.82301156  1
  H  H10  1  0.46551451  0.80414804  0.17698844  1
  H  H11  1  0.45184384  0.67108141  0.18559922  1
  H  H12  1  0.84462498  0.24659154  0.48620382  1
  H  H13  1  0.66912825  0.25117906  0.58426134  1
  H  H14  1  0.61778120  0.15930318  0.37762121  1
  H  H15  1  0.33087175  0.75117906  0.41573866  1
  H  H16  1  0.15537502  0.74659154  0.51379618  1
  H  H17  1  0.38221880  0.65930318  0.62237879  1
  H  H18  1  0.12059267  0.15976525  0.52306551  1
  H  H19  1  0.15748897  0.24113274  0.71978665  1
  H  H20  1  0.84251103  0.74113274  0.28021335  1
  H  H21  1  0.87940733  0.65976525  0.47693449  1
  H  H22  1  0.36721594  0.36929332  0.37439793  1
  H  H23  1  0.20370481  0.33517441  0.47901977  1
  H  H24  1  0.63278406  0.86929332  0.62560207  1
  H  H25  1  0.79629519  0.83517441  0.52098023  1
  H  H26  1  0.50588415  0.55585864  0.82906567  1
  H  H27  1  0.39915369  0.50410164  0.60967271  1
  H  H28  1  0.49411585  0.05585864  0.17093433  1
  H  H29  1  0.60084631  0.00410164  0.39032729  1
  H  H30  1  0.87341870  0.50632085  0.17555808  1
  H  H31  1  0.01405156  0.51671092  0.03203405  1
  H  H32  1  0.11662268  0.46863330  0.27654010  1
  H  H33  1  0.12658130  0.00632085  0.82444192  1
  H  H34  1  0.98594844  0.01671092  0.96796595  1
  H  H35  1  0.88337732  0.96863330  0.72345990  1
  Br  Br36  1  0.98460408  0.50789464  0.73147447  1
  Br  Br37  1  0.01539592  0.00789464  0.26852553  1
  Br  Br38  1  0.56005737  0.48915848  0.13791634  1
  Br  Br39  1  0.43994263  0.98915848  0.86208366  1
  O  O40  1  0.26253368  0.26024059  0.95966589  1
  O  O41  1  0.73746632  0.76024059  0.04033411  1
  O  O42  1  0.96781100  0.26728434  0.10865974  1
  O  O43  1  0.03218900  0.76728434  0.89134026  1
  O  O44  1  0.61201500  0.24271730  0.79264486  1
  O  O45  1  0.38798500  0.74271730  0.20735514  1
  O  O46  1  0.69527062  0.24457320  0.45374387  1
  O  O47  1  0.30472938  0.74457320  0.54625613  1
  O  O48  1  0.09769487  0.23623085  0.56792788  1
  O  O49  1  0.90230513  0.73623085  0.43207212  1
  O  O50  1  0.27257264  0.40097304  0.43478011  1
  O  O51  1  0.72742736  0.90097304  0.56521989  1
  O  O52  1  0.47489240  0.57072336  0.68348552  1
  O  O53  1  0.52510760  0.07072336  0.31651448  1
  O  O54  1  0.01417472  0.52408994  0.17830300  1
  O  O55  1  0.98582528  0.02408994  0.82169700  1
