# generated using pymatgen
data_K15Os7N19
_symmetry_space_group_name_H-M   'P 1'
_cell_length_a   6.87868133
_cell_length_b   12.36684501
_cell_length_c   19.07914325
_cell_angle_alpha   89.31986358
_cell_angle_beta   94.63558759
_cell_angle_gamma   99.39355256
_symmetry_Int_Tables_number   1
_chemical_formula_structural   K15Os7N19
_chemical_formula_sum   'K30 Os14 N38'
_cell_volume   1596.01352950
_cell_formula_units_Z   2
loop_
 _symmetry_equiv_pos_site_id
 _symmetry_equiv_pos_as_xyz
  1  'x, y, z'
loop_
 _atom_site_type_symbol
 _atom_site_label
 _atom_site_symmetry_multiplicity
 _atom_site_fract_x
 _atom_site_fract_y
 _atom_site_fract_z
 _atom_site_occupancy
  K  K0  1  0.50773254  0.62466483  0.43649435  1
  K  K1  1  0.49226746  0.37533517  0.56350565  1
  K  K2  1  0.63449393  0.12721297  0.65285548  1
  K  K3  1  0.36550607  0.87278703  0.34714452  1
  K  K4  1  0.71567015  0.02737344  0.20187634  1
  K  K5  1  0.28432985  0.97262656  0.79812366  1
  K  K6  1  0.93076143  0.03976995  0.39283718  1
  K  K7  1  0.06923857  0.96023005  0.60716282  1
  K  K8  1  0.76647255  0.76126648  0.28341121  1
  K  K9  1  0.23352745  0.23873352  0.71658879  1
  K  K10  1  0.86210730  0.17501975  0.83387115  1
  K  K11  1  0.13789270  0.82498025  0.16612885  1
  K  K12  1  0.86154369  0.90302571  0.89481341  1
  K  K13  1  0.13845631  0.09697429  0.10518659  1
  K  K14  1  0.71393959  0.07882358  0.01097576  1
  K  K15  1  0.28606041  0.92117642  0.98902424  1
  K  K16  1  0.59041922  0.88766366  0.53812754  1
  K  K17  1  0.40958078  0.11233634  0.46187246  1
  K  K18  1  0.59698264  0.46571333  0.27791564  1
  K  K19  1  0.40301736  0.53428667  0.72208436  1
  K  K20  1  0.98485410  0.33948749  0.01999806  1
  K  K21  1  0.01514590  0.66051251  0.98000194  1
  K  K22  1  0.91878220  0.65749265  0.78214908  1
  K  K23  1  0.08121780  0.34250735  0.21785092  1
  K  K24  1  0.78480631  0.27438048  0.37247141  1
  K  K25  1  0.21519369  0.72561952  0.62752859  1
  K  K26  1  0.59643369  0.37242975  0.84318687  1
  K  K27  1  0.40356631  0.62757025  0.15681313  1
  K  K28  1  -0.00000000  0.50000000  0.50000000  1
  K  K29  1  0.50000000  0.50000000  -0.00000000  1
  Os  Os30  1  0.58619481  0.27667628  0.12736744  1
  Os  Os31  1  0.41380519  0.72332372  0.87263256  1
  Os  Os32  1  0.87390839  0.40291780  0.68749000  1
  Os  Os33  1  0.12609161  0.59708220  0.31251000  1
  Os  Os34  1  0.72191777  0.64631135  0.60310466  1
  Os  Os35  1  0.27808223  0.35368865  0.39689534  1
  Os  Os36  1  0.97472971  0.77869700  0.45096108  1
  Os  Os37  1  0.02527029  0.22130300  0.54903892  1
  Os  Os38  1  0.87775739  0.55093582  0.13547079  1
  Os  Os39  1  0.12224261  0.44906418  0.86452921  1
  Os  Os40  1  0.67467147  0.86438675  0.72440094  1
  Os  Os41  1  0.32532853  0.13561325  0.27559906  1
  Os  Os42  1  0.68438758  0.79252836  0.05210997  1
  Os  Os43  1  0.31561242  0.20747164  0.94789003  1
  N  N44  1  0.80013069  0.21228017  0.12543662  1
  N  N45  1  0.19986931  0.78771983  0.87456338  1
  N  N46  1  0.96421299  0.31258546  0.61996485  1
  N  N47  1  0.03578701  0.68741454  0.38003515  1
  N  N48  1  0.54290453  0.09145714  0.32064122  1
  N  N49  1  0.45709547  0.90854286  0.67935878  1
  N  N50  1  0.59990808  0.77261388  0.79935494  1
  N  N51  1  0.40009192  0.22738612  0.20064506  1
  N  N52  1  0.67833143  0.42552375  0.14743108  1
  N  N53  1  0.32166857  0.57447625  0.85256892  1
  N  N54  1  0.53194858  0.39859147  0.42032983  1
  N  N55  1  0.46805142  0.60140853  0.57967017  1
  N  N56  1  0.81975815  0.11175058  0.52961284  1
  N  N57  1  0.18024185  0.88824942  0.47038716  1
  N  N58  1  0.89458549  0.70547387  0.53069455  1
  N  N59  1  0.10541451  0.29452613  0.46930545  1
  N  N60  1  0.92107001  0.88432547  0.04912853  1
  N  N61  1  0.07892999  0.11567453  0.95087147  1
  N  N62  1  0.75700395  0.83409734  0.41540035  1
  N  N63  1  0.24299605  0.16590266  0.58459965  1
  N  N64  1  0.78884565  0.78486292  0.66057191  1
  N  N65  1  0.21115435  0.21513708  0.33942809  1
  N  N66  1  0.91736608  0.47442663  0.90832940  1
  N  N67  1  0.08263392  0.52557337  0.09167060  1
  N  N68  1  0.57896442  0.76491209  0.95875179  1
  N  N69  1  0.42103558  0.23508791  0.04124821  1
  N  N70  1  0.73942118  0.66263703  0.09284244  1
  N  N71  1  0.26057882  0.33736297  0.90715756  1
  N  N72  1  0.85143305  0.98360266  0.75507412  1
  N  N73  1  0.14856695  0.01639734  0.24492588  1
  N  N74  1  0.95389516  0.61078465  0.23001890  1
  N  N75  1  0.04610484  0.38921535  0.76998110  1
  N  N76  1  0.86347619  0.54139922  0.64929204  1
  N  N77  1  0.13652381  0.45860078  0.35070796  1
  N  N78  1  0.62320984  0.35199395  0.70803513  1
  N  N79  1  0.37679016  0.64800605  0.29196487  1
  N  N80  1  0.51641136  0.85282225  0.10243342  1
  N  N81  1  0.48358864  0.14717775  0.89756658  1
