# generated using pymatgen
data_LiCu(PO3)4
_symmetry_space_group_name_H-M   'P 1'
_cell_length_a   7.00493022
_cell_length_b   7.63111303
_cell_length_c   4.99784247
_cell_angle_alpha   81.06960451
_cell_angle_beta   71.67332109
_cell_angle_gamma   109.28801218
_symmetry_Int_Tables_number   1
_chemical_formula_structural   LiCu(PO3)4
_chemical_formula_sum   'Li1 Cu1 P4 O12'
_cell_volume   229.14904607
_cell_formula_units_Z   1
loop_
 _symmetry_equiv_pos_site_id
 _symmetry_equiv_pos_as_xyz
  1  'x, y, z'
loop_
 _atom_site_type_symbol
 _atom_site_label
 _atom_site_symmetry_multiplicity
 _atom_site_fract_x
 _atom_site_fract_y
 _atom_site_fract_z
 _atom_site_occupancy
  Li  Li0  1  0.74829986  0.55183307  0.27304299  1
  Cu  Cu1  1  0.00237336  0.00286075  0.99639854  1
  P  P2  1  0.19901064  0.79158212  0.35954336  1
  P  P3  1  0.40554698  0.21196028  0.15538445  1
  P  P4  1  0.59609112  0.78722441  0.83919455  1
  P  P5  1  0.80242461  0.20781655  0.64041201  1
  O  O6  1  0.62298538  0.22601258  0.90773675  1
  O  O7  1  0.98599036  0.19434486  0.73601433  1
  O  O8  1  0.87191998  0.35953763  0.36471987  1
  O  O9  1  0.37708699  0.76703844  0.09377895  1
  O  O10  1  0.32858034  0.00311073  0.38799419  1
  O  O11  1  0.10913278  0.64279276  0.64391117  1
  O  O12  1  0.22828739  0.19789442  0.03236015  1
  O  O13  1  0.67219769  0.99629443  0.60991788  1
  O  O14  1  0.01888703  0.80703952  0.24985191  1
  O  O15  1  0.77079419  0.80308459  0.97408677  1
  O  O16  1  0.55809776  0.63419210  0.69039077  1
  O  O17  1  0.46514854  0.36962173  0.29159438  1
