# generated using pymatgen
data_K15Cr7N19
_symmetry_space_group_name_H-M   'P 1'
_cell_length_a   6.73305069
_cell_length_b   12.04701426
_cell_length_c   18.59030192
_cell_angle_alpha   89.84679202
_cell_angle_beta   94.45376837
_cell_angle_gamma   99.11473302
_symmetry_Int_Tables_number   1
_chemical_formula_structural   K15Cr7N19
_chemical_formula_sum   'K30 Cr14 N38'
_cell_volume   1484.31083811
_cell_formula_units_Z   2
loop_
 _symmetry_equiv_pos_site_id
 _symmetry_equiv_pos_as_xyz
  1  'x, y, z'
loop_
 _atom_site_type_symbol
 _atom_site_label
 _atom_site_symmetry_multiplicity
 _atom_site_fract_x
 _atom_site_fract_y
 _atom_site_fract_z
 _atom_site_occupancy
  K  K0  1  0.51738328  0.62056298  0.43296768  1
  K  K1  1  0.48261672  0.37943702  0.56703232  1
  K  K2  1  0.63908887  0.12746539  0.65600740  1
  K  K3  1  0.36091113  0.87253461  0.34399260  1
  K  K4  1  0.70770655  0.02181408  0.19524647  1
  K  K5  1  0.29229345  0.97818592  0.80475353  1
  K  K6  1  0.95331130  0.04504309  0.38824962  1
  K  K7  1  0.04668870  0.95495691  0.61175038  1
  K  K8  1  0.74499224  0.74157522  0.27363424  1
  K  K9  1  0.25500776  0.25842478  0.72636576  1
  K  K10  1  0.86701717  0.18050293  0.82999018  1
  K  K11  1  0.13298283  0.81949707  0.17000982  1
  K  K12  1  0.86645016  0.89432780  0.89659380  1
  K  K13  1  0.13354984  0.10567220  0.10340620  1
  K  K14  1  0.71358031  0.07995502  0.00235991  1
  K  K15  1  0.28641969  0.92004498  0.99764009  1
  K  K16  1  0.59895413  0.88674157  0.53019374  1
  K  K17  1  0.40104587  0.11325843  0.46980626  1
  K  K18  1  0.55188648  0.43209074  0.27517753  1
  K  K19  1  0.44811352  0.56790926  0.72482247  1
  K  K20  1  0.98552808  0.34055910  0.01288076  1
  K  K21  1  0.01447192  0.65944090  0.98711924  1
  K  K22  1  0.95461587  0.66463420  0.78324658  1
  K  K23  1  0.04538413  0.33536580  0.21675342  1
  K  K24  1  0.76725958  0.27092683  0.39019388  1
  K  K25  1  0.23274042  0.72907317  0.60980612  1
  K  K26  1  0.61495289  0.39203471  0.84542634  1
  K  K27  1  0.38504711  0.60796529  0.15457366  1
  K  K28  1  -0.00000000  0.50000000  0.50000000  1
  K  K29  1  0.50000000  0.50000000  0.00000000  1
  Cr  Cr30  1  0.56857919  0.27592596  0.11961091  1
  Cr  Cr31  1  0.43142081  0.72407404  0.88038909  1
  Cr  Cr32  1  0.88897379  0.41336217  0.68319571  1
  Cr  Cr33  1  0.11102621  0.58663783  0.31680429  1
  Cr  Cr34  1  0.74542428  0.65887866  0.60302951  1
  Cr  Cr35  1  0.25457572  0.34112134  0.39697049  1
  Cr  Cr36  1  0.96877893  0.77754087  0.44544548  1
  Cr  Cr37  1  0.03122107  0.22245913  0.55455452  1
  Cr  Cr38  1  0.85039182  0.54565350  0.14308163  1
  Cr  Cr39  1  0.14960818  0.45434650  0.85691837  1
  Cr  Cr40  1  0.65246138  0.86288267  0.72724059  1
  Cr  Cr41  1  0.34753862  0.13711733  0.27275941  1
  Cr  Cr42  1  0.68173018  0.78899252  0.05856368  1
  Cr  Cr43  1  0.31826982  0.21100748  0.94143632  1
  N  N44  1  0.76834595  0.21225366  0.11743118  1
  N  N45  1  0.23165405  0.78774634  0.88256882  1
  N  N46  1  0.97675642  0.32774637  0.61958579  1
  N  N47  1  0.02324358  0.67225363  0.38041421  1
  N  N48  1  0.54279937  0.09123147  0.31831750  1
  N  N49  1  0.45720063  0.90876853  0.68168250  1
  N  N50  1  0.57393121  0.78100768  0.80671536  1
  N  N51  1  0.42606879  0.21899232  0.19328464  1
  N  N52  1  0.64626159  0.42351984  0.13486990  1
  N  N53  1  0.35373841  0.57648016  0.86513010  1
  N  N54  1  0.49267180  0.39324064  0.42239788  1
  N  N55  1  0.50732820  0.60675936  0.57760212  1
  N  N56  1  0.82586795  0.12482705  0.53156638  1
  N  N57  1  0.17413205  0.87517295  0.46843362  1
  N  N58  1  0.87544498  0.70902406  0.52726349  1
  N  N59  1  0.12455502  0.29097594  0.47273651  1
  N  N60  1  0.88973966  0.88701112  0.05614615  1
  N  N61  1  0.11026034  0.11298888  0.94385385  1
  N  N62  1  0.77882006  0.83519690  0.40550911  1
  N  N63  1  0.22117994  0.16480310  0.59449089  1
  N  N64  1  0.75940654  0.76811233  0.66586605  1
  N  N65  1  0.24059346  0.23188767  0.33413395  1
  N  N66  1  0.96163610  0.48300900  0.90144482  1
  N  N67  1  0.03836390  0.51699100  0.09855518  1
  N  N68  1  0.58214660  0.74960022  0.96559064  1
  N  N69  1  0.41785340  0.25039978  0.03440936  1
  N  N70  1  0.75682412  0.66346958  0.10518056  1
  N  N71  1  0.24317588  0.33653042  0.89481944  1
  N  N72  1  0.83501295  0.97218292  0.75213391  1
  N  N73  1  0.16498705  0.02781708  0.24786609  1
  N  N74  1  0.92937580  0.56893874  0.23606739  1
  N  N75  1  0.07062420  0.43106126  0.76393261  1
  N  N76  1  0.86945594  0.54678945  0.64566447  1
  N  N77  1  0.13054406  0.45321055  0.35433553  1
  N  N78  1  0.66722828  0.35156007  0.70840489  1
  N  N79  1  0.33277172  0.64843993  0.29159511  1
  N  N80  1  0.50528169  0.83508250  0.10597360  1
  N  N81  1  0.49471831  0.16491750  0.89402640  1
