# generated using pymatgen
data_KSnO2
_symmetry_space_group_name_H-M   'P 1'
_cell_length_a   6.74484011
_cell_length_b   7.58502430
_cell_length_c   6.74056097
_cell_angle_alpha   116.80359856
_cell_angle_beta   77.23262243
_cell_angle_gamma   107.41905739
_symmetry_Int_Tables_number   1
_chemical_formula_structural   KSnO2
_chemical_formula_sum   'K4 Sn4 O8'
_cell_volume   292.17796499
_cell_formula_units_Z   4
loop_
 _symmetry_equiv_pos_site_id
 _symmetry_equiv_pos_as_xyz
  1  'x, y, z'
loop_
 _atom_site_type_symbol
 _atom_site_label
 _atom_site_symmetry_multiplicity
 _atom_site_fract_x
 _atom_site_fract_y
 _atom_site_fract_z
 _atom_site_occupancy
  K  K0  1  0.01662115  0.73719300  0.99869311  1
  K  K1  1  0.45674771  0.99371820  0.74622476  1
  K  K2  1  0.53952127  0.00631404  0.25459791  1
  K  K3  1  0.97754332  0.26613009  0.00017873  1
  Sn  Sn4  1  0.10543590  0.26214251  0.47743591  1
  Sn  Sn5  1  0.48870135  0.49943202  0.23737057  1
  Sn  Sn6  1  0.50601261  0.50118864  0.76327941  1
  Sn  Sn7  1  0.88969051  0.73777381  0.52301922  1
  O  O8  1  0.30492550  0.56071221  0.58198658  1
  O  O9  1  0.30532244  0.21728212  0.63585568  1
  O  O10  1  0.28887720  0.21009440  0.17045481  1
  O  O11  1  0.32682262  0.59152789  0.07748606  1
  O  O12  1  0.69043270  0.78250245  0.36399435  1
  O  O13  1  0.69007603  0.43979252  0.41889019  1
  O  O14  1  0.66720201  0.40852966  0.92322737  1
  O  O15  1  0.70655467  0.78996845  0.82994133  1
