# generated using pymatgen
data_Li5TiN3
_symmetry_space_group_name_H-M   'P 1'
_cell_length_a   8.45292792
_cell_length_b   8.45449802
_cell_length_c   21.30220598
_cell_angle_alpha   97.60665718
_cell_angle_beta   97.64203124
_cell_angle_gamma   109.40315049
_symmetry_Int_Tables_number   1
_chemical_formula_structural   Li5TiN3
_chemical_formula_sum   'Li80 Ti16 N48'
_cell_volume   1397.53992106
_cell_formula_units_Z   16
loop_
 _symmetry_equiv_pos_site_id
 _symmetry_equiv_pos_as_xyz
  1  'x, y, z'
loop_
 _atom_site_type_symbol
 _atom_site_label
 _atom_site_symmetry_multiplicity
 _atom_site_fract_x
 _atom_site_fract_y
 _atom_site_fract_z
 _atom_site_occupancy
  Li  Li0  1  0.51674358  0.52694625  0.74526969  1
  Li  Li1  1  0.85594262  0.31464531  0.91822673  1
  Li  Li2  1  0.58610316  0.12493592  0.92213363  1
  Li  Li3  1  0.81675569  0.82799677  0.92256163  1
  Li  Li4  1  0.33606838  0.61855529  0.67835576  1
  Li  Li5  1  0.39796543  0.12425474  0.83272254  1
  Li  Li6  1  0.35055510  0.07712040  0.64822283  1
  Li  Li7  1  0.83406893  0.84332783  0.41344967  1
  Li  Li8  1  0.17835672  0.63608168  0.58553734  1
  Li  Li9  1  0.07000962  0.36302384  0.66139351  1
  Li  Li10  1  0.54655869  0.57780457  0.91104503  1
  Li  Li11  1  0.26344557  0.77945623  0.76239445  1
  Li  Li12  1  0.01892665  0.51744862  0.75879400  1
  Li  Li13  1  0.90142299  0.46549042  0.58531826  1
  Li  Li14  1  0.13576468  0.14357731  0.59019666  1
  Li  Li15  1  0.32274038  0.30402945  0.92044958  1
  Li  Li16  1  0.13299503  0.92331248  0.83571766  1
  Li  Li17  1  0.67611016  0.94267800  0.34163036  1
  Li  Li18  1  0.40289828  0.64703368  0.82345139  1
  Li  Li19  1  0.88301161  0.91520167  0.57897393  1
  Li  Li20  1  0.92266394  0.67580095  0.84033266  1
  Li  Li21  1  0.17777352  0.42426062  0.84306197  1
  Li  Li22  1  0.71302110  0.47149793  0.48867631  1
  Li  Li23  1  0.67610977  0.42747211  0.32598779  1
  Li  Li24  1  0.97473962  -0.00014849  0.75345574  1
  Li  Li25  1  0.42219005  0.69530096  0.33949920  1
  Li  Li26  1  0.59725368  0.09280396  0.42306586  1
  Li  Li27  1  0.82023258  0.56760565  0.67608590  1
  Li  Li28  1  0.51141087  0.96682721  0.25272601  1
  Li  Li29  1  0.06846553  0.08241535  0.92300092  1
  Li  Li30  1  0.34140996  0.83601568  0.42510744  1
  Li  Li31  1  0.57857196  0.58059607  0.40711802  1
  Li  Li32  1  0.24834986  0.78238505  0.25927606  1
  Li  Li33  1  0.68374984  0.65962700  0.58326415  1
  Li  Li34  1  0.85869586  0.08561079  0.66638753  1
  Li  Li35  1  0.46985781  0.23266772  0.48560994  1
  Li  Li36  1  0.95239069  0.18496226  0.83839761  1
  Li  Li37  1  0.47372471  0.48479621  0.25878960  1
  Li  Li38  1  0.58635777  0.32340841  0.68147163  1
  Li  Li39  1  0.08152905  0.55947682  0.91715992  1
  Li  Li40  1  0.76400639  0.74581777  0.75230909  1
  Li  Li41  1  0.74133207  0.97785805  0.49282136  1
  Li  Li42  1  0.60548433  0.83214243  0.66779466  1
  Li  Li43  1  0.25813558  0.00441370  0.50834776  1
  Li  Li44  1  0.21864045  0.25131426  0.24703444  1
  Li  Li45  1  0.01648335  0.75400634  0.98573439  1
  Li  Li46  1  0.51659299  0.73166267  0.49428910  1
  Li  Li47  1  0.33490345  0.35743655  0.41710035  1
  Li  Li48  1  0.06593432  0.78765382  0.16532002  1
  Li  Li49  1  0.93747429  0.42800150  0.08721694  1
  Li  Li50  1  0.15440705  0.90164899  0.34379321  1
  Li  Li51  1  0.78171328  0.24090677  0.74646919  1
  Li  Li52  1  0.68323932  0.18130548  0.09085550  1
  Li  Li53  1  0.49890487  0.01204698  0.73699341  1
  Li  Li54  1  0.41977534  0.87668752  0.57936213  1
  Li  Li55  1  0.26216245  0.52821984  0.49414224  1
  Li  Li56  1  0.19260363  0.42477598  0.33693533  1
  Li  Li57  1  0.02141954  0.99129299  0.25148433  1
  Li  Li58  1  0.91570829  0.66485046  0.34506334  1
  Li  Li59  1  0.80460392  0.56454696  0.15286859  1
  Li  Li60  1  0.09768954  0.08301550  0.41908355  1
  Li  Li61  1  0.07369423  0.31361041  0.15854942  1
  Li  Li62  1  0.94110413  0.16920975  0.33299714  1
  Li  Li63  1  0.58965331  0.34085487  0.17568479  1
  Li  Li64  1  0.64063024  0.66887787  0.08639923  1
  Li  Li65  1  0.84502916  0.09010766  0.17541542  1
  Li  Li66  1  0.74788945  0.02910723  0.99791362  1
  Li  Li67  1  0.48765242  0.22959536  0.00618468  1
  Li  Li68  1  0.10192226  0.57755004  0.40802025  1
  Li  Li69  1  0.82364282  0.33711128  0.40374460  1
  Li  Li70  1  0.52827091  0.75246440  0.99971644  1
  Li  Li71  1  0.59624285  0.86485322  0.16185148  1
  Li  Li72  1  0.73682559  0.22239563  0.25323769  1
  Li  Li73  1  0.42812856  0.41049855  0.08351106  1
  Li  Li74  1  0.26861998  0.50350099  0.99555602  1
  Li  Li75  1  0.17733775  0.18771922  0.07914306  1
  Li  Li76  1  0.43714569  0.91676240  0.07106602  1
  Li  Li77  1  0.16867436  0.67941578  0.06961732  1
  Li  Li78  1  0.24174367  0.00147941  0.00605926  1
  Li  Li79  1  0.01500476  0.27091314  0.00198720  1
  Ti  Ti80  1  0.66253288  0.92652643  0.83215583  1
  Ti  Ti81  1  0.66199894  0.40047145  0.83110710  1
  Ti  Ti82  1  0.99282756  0.26306693  0.50094993  1
  Ti  Ti83  1  0.25148037  0.24902723  0.74388765  1
  Ti  Ti84  1  0.99341673  0.73666903  0.49941837  1
  Ti  Ti85  1  0.07598690  0.83226094  0.66469673  1
  Ti  Ti86  1  0.33241620  0.83609396  0.91488340  1
  Ti  Ti87  1  0.32824800  0.59400650  0.16700277  1
  Ti  Ti88  1  0.32797754  0.06826503  0.16540162  1
  Ti  Ti89  1  0.41013254  0.16061543  0.33208565  1
  Ti  Ti90  1  0.98984992  0.49581384  0.24811706  1
  Ti  Ti91  1  0.65859541  0.16590505  0.58097848  1
  Ti  Ti92  1  0.40523131  0.41041765  0.58678907  1
  Ti  Ti93  1  0.91633326  0.91379461  0.07956907  1
  Ti  Ti94  1  0.74247404  0.49767635  0.99771003  1
  Ti  Ti95  1  0.74170086  0.74637530  0.25128191  1
  N  N96  1  0.66507377  0.16729800  0.82996922  1
  N  N97  1  0.32931545  0.33288410  0.66595812  1
  N  N98  1  0.57246539  0.84263437  0.90831632  1
  N  N99  1  0.80125226  0.55637925  0.91263259  1
  N  N100  1  0.42235512  0.39585855  0.82111664  1
  N  N101  1  0.17659325  0.68483673  0.84019446  1
  N  N102  1  0.67144175  0.67852131  0.32632835  1
  N  N103  1  0.90014676  0.17914486  0.57648613  1
  N  N104  1  0.14390164  0.89147155  0.58208428  1
  N  N105  1  0.23662618  0.00972285  0.73982427  1
  N  N106  1  0.32597992  0.06052601  0.91760647  1
  N  N107  1  0.07985692  0.61119388  0.66958376  1
  N  N108  1  0.26562700  0.75931709  0.99147380  1
  N  N109  1  0.03473553  0.25730951  0.74749547  1
  N  N110  1  0.09479362  0.33047338  0.91982706  1
  N  N111  1  0.77035240  0.74028276  0.49768465  1
  N  N112  1  0.85214976  0.82876921  0.66639295  1
  N  N113  1  0.51174643  0.01188793  0.50847579  1
  N  N114  1  0.23096315  0.50821634  0.24083603  1
  N  N115  1  0.63451258  0.39564097  0.58393716  1
  N  N116  1  0.47149156  0.22247562  0.24632086  1
  N  N117  1  0.56684706  0.31884945  0.40523800  1
  N  N118  1  0.88490541  0.91760574  0.83508266  1
  N  N119  1  0.41709802  0.93945032  0.33705126  1
  N  N120  1  0.59832863  0.08348617  0.65659886  1
  N  N121  1  0.34397761  0.59325298  0.41572471  1
  N  N122  1  0.09003272  0.06375016  0.15964007  1
  N  N123  1  0.51786451  0.77516070  0.75605323  1
  N  N124  1  0.42234091  0.63609330  0.58754862  1
  N  N125  1  0.74822960  0.48643678  0.76060047  1
  N  N126  1  0.18429189  0.16090807  0.33368707  1
  N  N127  1  0.84276942  0.34330594  0.17394902  1
  N  N128  1  0.98924624  0.99414147  0.00676220  1
  N  N129  1  0.90219192  0.66988414  0.07456832  1
  N  N130  1  0.23366373  0.26184037  0.51076377  1
  N  N131  1  0.97417902  0.72716373  0.24937157  1
  N  N132  1  0.75169890  0.27943943  0.00395138  1
  N  N133  1  0.92285470  0.41810794  0.32310690  1
  N  N134  1  0.75724595  0.97667460  0.25205637  1
  N  N135  1  0.69600287  0.92562069  0.08269998  1
  N  N136  1  0.85825503  0.11058020  0.42638859  1
  N  N137  1  0.07601500  0.82581059  0.42854377  1
  N  N138  1  0.99158071  0.49584704  0.49904161  1
  N  N139  1  0.52005827  0.49498454  0.00077341  1
  N  N140  1  0.56659488  0.59521048  0.17311927  1
  N  N141  1  0.19212491  0.44398180  0.09234230  1
  N  N142  1  0.41299391  0.15725185  0.09543323  1
  N  N143  1  0.33066018  0.83139404  0.16533377  1
