# generated using pymatgen
data_Cd4GeSe6
_symmetry_space_group_name_H-M   'P 1'
_cell_length_a   7.61307760
_cell_length_b   7.60393306
_cell_length_c   13.14014128
_cell_angle_alpha   73.55297454
_cell_angle_beta   73.16073313
_cell_angle_gamma   59.96021007
_symmetry_Int_Tables_number   1
_chemical_formula_structural   Cd4GeSe6
_chemical_formula_sum   'Cd8 Ge2 Se12'
_cell_volume   621.44552932
_cell_formula_units_Z   2
loop_
 _symmetry_equiv_pos_site_id
 _symmetry_equiv_pos_as_xyz
  1  'x, y, z'
loop_
 _atom_site_type_symbol
 _atom_site_label
 _atom_site_symmetry_multiplicity
 _atom_site_fract_x
 _atom_site_fract_y
 _atom_site_fract_z
 _atom_site_occupancy
  Ge  Ge0  1  0.19791962  0.70271799  0.44299006  1
  Ge  Ge1  1  0.65637233  0.20271799  0.94299006  1
  Se  Se2  1  0.92861459  0.44502988  0.19167055  1
  Se  Se3  1  0.43468498  0.94502988  0.69167055  1
  Se  Se4  1  0.99464560  0.02975122  0.49720090  1
  Se  Se5  1  0.47840227  0.52975122  0.99720090  1
  Se  Se6  1  0.07997120  0.57198231  0.81331340  1
  Se  Se7  1  0.53473308  0.07198231  0.31331340  1
  Se  Se8  1  0.77513191  0.24175162  0.75404133  1
  Se  Se9  1  0.22907513  0.74175162  0.25404133  1
  Se  Se10  1  0.48070433  0.99989044  0.99617754  1
  Se  Se11  1  0.52322770  0.49989044  0.49617754  1
  Se  Se12  1  0.95664790  0.03004865  0.02389706  1
  Se  Se13  1  0.98940639  0.53004865  0.52389706  1
  Cd  Cd14  1  0.28395697  0.13899663  0.50607438  1
  Cd  Cd15  1  0.07097203  0.63899663  0.00607438  1
  Cd  Cd16  1  0.80662479  0.90399297  0.69408840  1
  Cd  Cd17  1  0.59529383  0.40399297  0.19408840  1
  Cd  Cd18  1  0.43130543  0.58484244  0.69932490  1
  Cd  Cd19  1  0.28452723  0.08484244  0.19932490  1
  Cd  Cd20  1  0.19792116  0.15799584  0.85622148  1
  Cd  Cd21  1  0.78786152  0.65799584  0.35622148  1
