# generated using pymatgen
data_Ag2GeS3
_symmetry_space_group_name_H-M   'P 1'
_cell_length_a   6.54532950
_cell_length_b   6.95629561
_cell_length_c   6.95629561
_cell_angle_alpha   118.96569755
_cell_angle_beta   90.00000000
_cell_angle_gamma   90.00000000
_symmetry_Int_Tables_number   1
_chemical_formula_structural   Ag2GeS3
_chemical_formula_sum   'Ag4 Ge2 S6'
_cell_volume   277.10914257
_cell_formula_units_Z   2
loop_
 _symmetry_equiv_pos_site_id
 _symmetry_equiv_pos_as_xyz
  1  'x, y, z'
loop_
 _atom_site_type_symbol
 _atom_site_label
 _atom_site_symmetry_multiplicity
 _atom_site_fract_x
 _atom_site_fract_y
 _atom_site_fract_z
 _atom_site_occupancy
  S  S0  1  0.82362756  0.64266473  0.64266473  1
  S  S1  1  0.32362756  0.35733527  0.35733527  1
  S  S2  1  0.37683578  0.65160729  0.96353249  1
  S  S3  1  0.37683578  0.96353249  0.65160729  1
  S  S4  1  0.87683578  0.03646751  0.34839271  1
  S  S5  1  0.87683578  0.34839271  0.03646751  1
  Ge  Ge6  1  0.95946783  0.33923351  0.33923351  1
  Ge  Ge7  1  0.45946783  0.66076649  0.66076649  1
  Ag  Ag8  1  0.49011653  0.30997035  0.99592029  1
  Ag  Ag9  1  0.99011653  0.69002965  0.00407971  1
  Ag  Ag10  1  0.49011653  0.99592029  0.30997035  1
  Ag  Ag11  1  0.99011653  0.00407971  0.69002965  1
