# generated using pymatgen
data_BaHgS2
_symmetry_space_group_name_H-M   'P 1'
_cell_length_a   4.28905620
_cell_length_b   7.45999918
_cell_length_c   14.62630395
_cell_angle_alpha   90.00000000
_cell_angle_beta   90.00000000
_cell_angle_gamma   90.00000000
_symmetry_Int_Tables_number   1
_chemical_formula_structural   BaHgS2
_chemical_formula_sum   'Ba4 Hg4 S8'
_cell_volume   467.98842427
_cell_formula_units_Z   4
loop_
 _symmetry_equiv_pos_site_id
 _symmetry_equiv_pos_as_xyz
  1  'x, y, z'
loop_
 _atom_site_type_symbol
 _atom_site_label
 _atom_site_symmetry_multiplicity
 _atom_site_fract_x
 _atom_site_fract_y
 _atom_site_fract_z
 _atom_site_occupancy
  S  S0  1  0.50000000  0.38858210  0.46871935  1
  S  S1  1  0.50000000  0.88858210  0.53128065  1
  S  S2  1  0.00000000  0.89182052  0.77844401  1
  S  S3  1  0.00000000  0.39182052  0.22155599  1
  S  S4  1  0.50000000  0.39907406  0.73676176  1
  S  S5  1  0.50000000  0.72896404  0.01575662  1
  S  S6  1  0.50000000  0.22896404  0.98424338  1
  S  S7  1  0.50000000  0.89907406  0.26323824  1
  Ba  Ba8  1  0.00000000  0.00337562  0.10159832  1
  Ba  Ba9  1  0.00000000  0.67923102  0.39041363  1
  Ba  Ba10  1  0.00000000  0.50337562  0.89840168  1
  Ba  Ba11  1  0.00000000  0.17923102  0.60958637  1
  Hg  Hg12  1  0.50000000  0.66545074  0.64753486  1
  Hg  Hg13  1  0.50000000  0.16545074  0.35246514  1
  Hg  Hg14  1  0.50000000  -0.00009811  0.85922402  1
  Hg  Hg15  1  0.50000000  0.49990189  0.14077598  1
