# generated using pymatgen
data_BaTe2
_symmetry_space_group_name_H-M   'P 1'
_cell_length_a   6.86323711
_cell_length_b   6.86323711
_cell_length_c   6.86323712
_cell_angle_alpha   96.42247878
_cell_angle_beta   116.36389114
_cell_angle_gamma   116.36389110
_symmetry_Int_Tables_number   1
_chemical_formula_structural   BaTe2
_chemical_formula_sum   'Ba2 Te4'
_cell_volume   239.53151385
_cell_formula_units_Z   2
loop_
 _symmetry_equiv_pos_site_id
 _symmetry_equiv_pos_as_xyz
  1  'x, y, z'
loop_
 _atom_site_type_symbol
 _atom_site_label
 _atom_site_symmetry_multiplicity
 _atom_site_fract_x
 _atom_site_fract_y
 _atom_site_fract_z
 _atom_site_occupancy
  Te  Te0  1  0.22385956  0.36192978  0.86192978  1
  Te  Te1  1  0.50000000  0.86192978  0.63807022  1
  Te  Te2  1  0.77614044  0.63807022  0.13807022  1
  Te  Te3  1  0.50000000  0.13807022  0.36192978  1
  Ba  Ba4  1  0.00000000  0.75000000  0.75000000  1
  Ba  Ba5  1  0.00000000  0.25000000  0.25000000  1
