# generated using pymatgen
data_BaGe7N10
_symmetry_space_group_name_H-M   'P 1'
_cell_length_a   7.31781728
_cell_length_b   7.14696667
_cell_length_c   10.27104611
_cell_angle_alpha   90.00000000
_cell_angle_beta   105.95393724
_cell_angle_gamma   90.00000000
_symmetry_Int_Tables_number   1
_chemical_formula_structural   BaGe7N10
_chemical_formula_sum   'Ba2 Ge14 N20'
_cell_volume   516.48724333
_cell_formula_units_Z   2
loop_
 _symmetry_equiv_pos_site_id
 _symmetry_equiv_pos_as_xyz
  1  'x, y, z'
loop_
 _atom_site_type_symbol
 _atom_site_label
 _atom_site_symmetry_multiplicity
 _atom_site_fract_x
 _atom_site_fract_y
 _atom_site_fract_z
 _atom_site_occupancy
  Ba  Ba0  1  0.95809552  0.07050776  0.66805875  1
  Ba  Ba1  1  0.95809552  0.92949224  0.16805875  1
  Ge  Ge2  1  0.54399087  0.96862787  0.82726901  1
  Ge  Ge3  1  0.54399087  0.03137213  0.32726901  1
  Ge  Ge4  1  0.35016541  0.02947754  0.01650627  1
  Ge  Ge5  1  0.35016541  0.97052246  0.51650627  1
  Ge  Ge6  1  0.10942446  0.39171915  0.07270907  1
  Ge  Ge7  1  0.10942446  0.60828085  0.57270907  1
  Ge  Ge8  1  0.66642305  0.36194979  0.99347849  1
  Ge  Ge9  1  0.66642305  0.63805021  0.49347849  1
  Ge  Ge10  1  0.84926564  0.62516535  0.80966836  1
  Ge  Ge11  1  0.84926564  0.37483465  0.30966836  1
  Ge  Ge12  1  0.29539139  0.61945093  0.88355865  1
  Ge  Ge13  1  0.29539139  0.38054907  0.38355865  1
  Ge  Ge14  1  0.48397092  0.37003927  0.68758700  1
  Ge  Ge15  1  0.48397092  0.62996073  0.18758700  1
  N  N16  1  0.76657543  0.85621037  0.83658567  1
  N  N17  1  0.76657543  0.14378963  0.33658567  1
  N  N18  1  0.57263443  0.12372088  0.98015158  1
  N  N19  1  0.57263443  0.87627912  0.48015158  1
  N  N20  1  0.31576293  0.87346093  0.86126369  1
  N  N21  1  0.31576293  0.12653907  0.36126369  1
  N  N22  1  0.13800193  0.15712797  0.01387420  1
  N  N23  1  0.13800193  0.84287203  0.51387420  1
  N  N24  1  0.28208323  0.49779930  0.72349615  1
  N  N25  1  0.28208323  0.50220070  0.22349615  1
  N  N26  1  0.44003710  0.11582201  0.67359653  1
  N  N27  1  0.44003710  0.88417799  0.17359653  1
  N  N28  1  0.88742017  0.38593095  0.13265020  1
  N  N29  1  0.88742017  0.61406905  0.63265020  1
  N  N30  1  0.07884834  0.58400009  0.94171261  1
  N  N31  1  0.07884834  0.41599991  0.44171261  1
  N  N32  1  0.70695130  0.41010582  0.82390661  1
  N  N33  1  0.70695130  0.58989418  0.32390661  1
  N  N34  1  0.49725689  0.53710705  0.02322716  1
  N  N35  1  0.49725689  0.46289295  0.52322716  1
