# generated using pymatgen
data_CaN6
_symmetry_space_group_name_H-M   'P 1'
_cell_length_a   5.98593424
_cell_length_b   6.32318917
_cell_length_c   6.49727316
_cell_angle_alpha   77.40604886
_cell_angle_beta   62.57095879
_cell_angle_gamma   61.74920454
_symmetry_Int_Tables_number   1
_chemical_formula_structural   CaN6
_chemical_formula_sum   'Ca2 N12'
_cell_volume   192.27664603
_cell_formula_units_Z   2
loop_
 _symmetry_equiv_pos_site_id
 _symmetry_equiv_pos_as_xyz
  1  'x, y, z'
loop_
 _atom_site_type_symbol
 _atom_site_label
 _atom_site_symmetry_multiplicity
 _atom_site_fract_x
 _atom_site_fract_y
 _atom_site_fract_z
 _atom_site_occupancy
  N  N0  1  0.83800405  0.38275480  0.49962101  1
  N  N1  1  0.22037986  0.11724520  0.00037899  1
  N  N2  1  0.00137180  0.25000000  0.99725639  1
  N  N3  1  0.74862820  0.25000000  0.50274361  1
  N  N4  1  0.99862820  0.75000000  0.00274361  1
  N  N5  1  0.25137180  0.75000000  0.49725639  1
  N  N6  1  0.33762506  0.88275480  0.50037899  1
  N  N7  1  0.22075885  0.61724520  0.99962101  1
  N  N8  1  0.77962014  0.88275480  0.99962101  1
  N  N9  1  0.16199595  0.61724520  0.50037899  1
  N  N10  1  0.66237494  0.11724520  0.49962101  1
  N  N11  1  0.77924115  0.38275480  0.00037899  1
  Ca  Ca12  1  0.62500000  0.75000000  0.75000000  1
  Ca  Ca13  1  0.37500000  0.25000000  0.25000000  1
