# generated using pymatgen
data_RbS
_symmetry_space_group_name_H-M   'P 1'
_cell_length_a   8.96560502
_cell_length_b   8.96560502
_cell_length_c   6.19737012
_cell_angle_alpha   90.00000000
_cell_angle_beta   90.00000000
_cell_angle_gamma   119.99999999
_symmetry_Int_Tables_number   1
_chemical_formula_structural   RbS
_chemical_formula_sum   'Rb6 S6'
_cell_volume   431.41701533
_cell_formula_units_Z   6
loop_
 _symmetry_equiv_pos_site_id
 _symmetry_equiv_pos_as_xyz
  1  'x, y, z'
loop_
 _atom_site_type_symbol
 _atom_site_label
 _atom_site_symmetry_multiplicity
 _atom_site_fract_x
 _atom_site_fract_y
 _atom_site_fract_z
 _atom_site_occupancy
  S  S0  1  0.66666667  0.33333333  0.32714509  1
  S  S1  1  0.66666667  0.33333333  0.67285491  1
  S  S2  1  0.33333333  0.66666667  0.67285491  1
  S  S3  1  0.33333333  0.66666667  0.32714509  1
  S  S4  1  0.00000000  0.00000000  0.82828787  1
  S  S5  1  0.00000000  0.00000000  0.17171213  1
  Rb  Rb6  1  0.00000000  0.30429321  0.50000000  1
  Rb  Rb7  1  0.69570679  0.69570679  0.50000000  1
  Rb  Rb8  1  0.30429321  0.00000000  0.50000000  1
  Rb  Rb9  1  0.00000000  0.64025528  0.00000000  1
  Rb  Rb10  1  0.35974472  0.35974472  0.00000000  1
  Rb  Rb11  1  0.64025528  0.00000000  0.00000000  1
