# generated using pymatgen
data_Fe2OF3
_symmetry_space_group_name_H-M   'P 1'
_cell_length_a   4.87819724
_cell_length_b   4.87819724
_cell_length_c   3.10626751
_cell_angle_alpha   90.00000000
_cell_angle_beta   90.00000000
_cell_angle_gamma   88.55652785
_symmetry_Int_Tables_number   1
_chemical_formula_structural   Fe2OF3
_chemical_formula_sum   'Fe2 O1 F3'
_cell_volume   73.89579535
_cell_formula_units_Z   1
loop_
 _symmetry_equiv_pos_site_id
 _symmetry_equiv_pos_as_xyz
  1  'x, y, z'
loop_
 _atom_site_type_symbol
 _atom_site_label
 _atom_site_symmetry_multiplicity
 _atom_site_fract_x
 _atom_site_fract_y
 _atom_site_fract_z
 _atom_site_occupancy
  Fe  Fe0  1  0.02381299  0.97618701  0.00000000  1
  Fe  Fe1  1  0.48817083  0.51182917  0.50000000  1
  O  O2  1  0.18646694  0.81353306  0.50000000  1
  F  F3  1  0.29217985  0.29629711  0.00000000  1
  F  F4  1  0.70370289  0.70782015  0.00000000  1
  F  F5  1  0.80566750  0.19433250  0.50000000  1
