# generated using pymatgen
data_RbNO3
_symmetry_space_group_name_H-M   'P 1'
_cell_length_a   4.99733149
_cell_length_b   5.64344860
_cell_length_c   5.88572235
_cell_angle_alpha   90.00000000
_cell_angle_beta   90.00000000
_cell_angle_gamma   90.00000000
_symmetry_Int_Tables_number   1
_chemical_formula_structural   RbNO3
_chemical_formula_sum   'Rb2 N2 O6'
_cell_volume   165.99022116
_cell_formula_units_Z   2
loop_
 _symmetry_equiv_pos_site_id
 _symmetry_equiv_pos_as_xyz
  1  'x, y, z'
loop_
 _atom_site_type_symbol
 _atom_site_label
 _atom_site_symmetry_multiplicity
 _atom_site_fract_x
 _atom_site_fract_y
 _atom_site_fract_z
 _atom_site_occupancy
  N  N0  1  0.01045126  0.25000000  0.25000000  1
  N  N1  1  0.98954874  0.75000000  0.75000000  1
  O  O2  1  0.88425002  0.25000000  0.43697441  1
  O  O3  1  0.88425002  0.25000000  0.06302559  1
  O  O4  1  0.73458593  0.75000000  0.75000000  1
  O  O5  1  0.26541407  0.25000000  0.25000000  1
  O  O6  1  0.11574998  0.75000000  0.56302559  1
  O  O7  1  0.11574998  0.75000000  0.93697441  1
  Rb  Rb8  1  0.60032877  0.75000000  0.25000000  1
  Rb  Rb9  1  0.39967123  0.25000000  0.75000000  1
