# generated using pymatgen
data_YWN3
_symmetry_space_group_name_H-M   'P 1'
_cell_length_a   3.76367000
_cell_length_b   5.47213948
_cell_length_c   7.84833000
_cell_angle_alpha   110.40281669
_cell_angle_beta   90.00000000
_cell_angle_gamma   90.00000000
_symmetry_Int_Tables_number   1
_chemical_formula_structural   YWN3
_chemical_formula_sum   'Y2 W2 N6'
_cell_volume   151.49848246
_cell_formula_units_Z   2
loop_
 _symmetry_equiv_pos_site_id
 _symmetry_equiv_pos_as_xyz
  1  'x, y, z'
loop_
 _atom_site_type_symbol
 _atom_site_label
 _atom_site_symmetry_multiplicity
 _atom_site_fract_x
 _atom_site_fract_y
 _atom_site_fract_z
 _atom_site_occupancy
  Y  Y0  1  0.75000000  0.06924000  0.65856000  1
  Y  Y1  1  0.25000000  0.41068000  0.34144000  1
  W  W2  1  0.25000000  0.69960000  0.82298000  1
  W  W3  1  0.75000000  0.87662000  0.17702000  1
  N  N4  1  0.75000000  0.16458000  0.39402000  1
  N  N5  1  0.75000000  0.82398000  0.89026000  1
  N  N6  1  0.25000000  0.93372000  0.10974000  1
  N  N7  1  0.25000000  0.34811000  0.76488000  1
  N  N8  1  0.25000000  0.77056000  0.60598000  1
  N  N9  1  0.75000000  0.58323000  0.23512000  1
