# generated using pymatgen
data_CrPb2O5
_symmetry_space_group_name_H-M   'P 1'
_cell_length_a   5.82848689
_cell_length_b   7.26171140
_cell_length_c   7.60918947
_cell_angle_alpha   111.01753719
_cell_angle_beta   112.50868423
_cell_angle_gamma   89.98789872
_symmetry_Int_Tables_number   1
_chemical_formula_structural   CrPb2O5
_chemical_formula_sum   'Cr2 Pb4 O10'
_cell_volume   274.19767988
_cell_formula_units_Z   2
loop_
 _symmetry_equiv_pos_site_id
 _symmetry_equiv_pos_as_xyz
  1  'x, y, z'
loop_
 _atom_site_type_symbol
 _atom_site_label
 _atom_site_symmetry_multiplicity
 _atom_site_fract_x
 _atom_site_fract_y
 _atom_site_fract_z
 _atom_site_occupancy
  O  O0  1  0.74702497  0.00001065  0.00002245  1
  O  O1  1  0.25297651  1.00000345  0.99998706  1
  O  O2  1  0.61920670  0.23131907  0.69928541  1
  O  O3  1  0.91995412  0.76864846  0.30069672  1
  O  O4  1  0.38073887  0.76864712  0.30070599  1
  O  O5  1  0.08008875  0.23131978  0.69929340  1
  O  O6  1  0.90054573  0.58855735  0.80132475  1
  O  O7  1  0.09944003  0.41139408  0.19863994  1
  O  O8  1  0.29832052  0.69099662  0.59678337  1
  O  O9  1  0.70170134  0.30900629  0.40325400  1
  Cr  Cr10  1  0.17373947  0.65640700  0.34741917  1
  Cr  Cr11  1  0.82624650  0.34368907  0.65254177  1
  Pb  Pb12  1  0.48518938  0.74032532  0.97022894  1
  Pb  Pb13  1  0.51482980  0.25968620  0.02981796  1
  Pb  Pb14  1  0.14183963  0.10673303  0.28383752  1
  Pb  Pb15  1  0.85815525  0.89325615  0.71616064  1
