# generated using pymatgen
data_La2Be2GeO7
_symmetry_space_group_name_H-M   'P 1'
_cell_length_a   4.99174909
_cell_length_b   7.72548230
_cell_length_c   7.72548230
_cell_angle_alpha   90.00000000
_cell_angle_beta   90.00000000
_cell_angle_gamma   90.00000000
_symmetry_Int_Tables_number   1
_chemical_formula_structural   La2Be2GeO7
_chemical_formula_sum   'La4 Be4 Ge2 O14'
_cell_volume   297.92294414
_cell_formula_units_Z   2
loop_
 _symmetry_equiv_pos_site_id
 _symmetry_equiv_pos_as_xyz
  1  'x, y, z'
loop_
 _atom_site_type_symbol
 _atom_site_label
 _atom_site_symmetry_multiplicity
 _atom_site_fract_x
 _atom_site_fract_y
 _atom_site_fract_z
 _atom_site_occupancy
  Be  Be0  1  0.03781082  0.36692966  0.13307034  1
  Be  Be1  1  0.96218918  0.86692966  0.36692966  1
  Be  Be2  1  0.03781082  0.63307034  0.86692966  1
  Be  Be3  1  0.96218918  0.13307034  0.63307034  1
  O  O4  1  0.80128023  0.92181614  0.17380598  1
  O  O5  1  0.19871977  0.17380598  0.07818386  1
  O  O6  1  0.19871977  0.57818386  0.67380598  1
  O  O7  1  0.19871977  0.42181614  0.32619402  1
  O  O8  1  0.80128023  0.32619402  0.57818386  1
  O  O9  1  0.80128023  0.67380598  0.42181614  1
  O  O10  1  0.83376582  0.00000000  0.50000000  1
  O  O11  1  0.16623418  0.50000000  0.00000000  1
  O  O12  1  0.28090301  0.14261350  0.64261350  1
  O  O13  1  0.71909699  0.64261350  0.85738650  1
  O  O14  1  0.71909699  0.35738650  0.14261350  1
  O  O15  1  0.28090301  0.85738650  0.35738650  1
  O  O16  1  0.80128023  0.07818386  0.82619402  1
  O  O17  1  0.19871977  0.82619402  0.92181614  1
  Ge  Ge18  1  0.00000000  0.50000000  0.50000000  1
  Ge  Ge19  1  0.00000000  0.00000000  0.00000000  1
  La  La20  1  0.50146647  0.66088627  0.16088627  1
  La  La21  1  0.49853353  0.16088627  0.33911373  1
  La  La22  1  0.49853353  0.83911373  0.66088627  1
  La  La23  1  0.50146647  0.33911373  0.83911373  1
