# generated using pymatgen
data_SrCaSi
_symmetry_space_group_name_H-M   'P 1'
_cell_length_a   4.93322318
_cell_length_b   8.10046478
_cell_length_c   9.14442817
_cell_angle_alpha   90.00000000
_cell_angle_beta   90.00000000
_cell_angle_gamma   90.00000000
_symmetry_Int_Tables_number   1
_chemical_formula_structural   SrCaSi
_chemical_formula_sum   'Sr4 Ca4 Si4'
_cell_volume   365.42415756
_cell_formula_units_Z   4
loop_
 _symmetry_equiv_pos_site_id
 _symmetry_equiv_pos_as_xyz
  1  'x, y, z'
loop_
 _atom_site_type_symbol
 _atom_site_label
 _atom_site_symmetry_multiplicity
 _atom_site_fract_x
 _atom_site_fract_y
 _atom_site_fract_z
 _atom_site_occupancy
  Si  Si0  1  0.25000000  0.76738594  0.10653087  1
  Si  Si1  1  0.25000000  0.26738594  0.39346913  1
  Si  Si2  1  0.75000000  0.23261406  0.89346913  1
  Si  Si3  1  0.75000000  0.73261406  0.60653087  1
  Ca  Ca4  1  0.75000000  0.35260623  0.57337696  1
  Ca  Ca5  1  0.25000000  0.14739377  0.07337696  1
  Ca  Ca6  1  0.75000000  0.85260623  0.92662304  1
  Ca  Ca7  1  0.25000000  0.64739377  0.42662304  1
  Sr  Sr8  1  0.25000000  0.52226144  0.82158745  1
  Sr  Sr9  1  0.25000000  0.02226144  0.67841255  1
  Sr  Sr10  1  0.75000000  0.97773856  0.32158745  1
  Sr  Sr11  1  0.75000000  0.47773856  0.17841255  1
