# generated using pymatgen
data_Y2SiP4O15
_symmetry_space_group_name_H-M   'P 1'
_cell_length_a   5.59810774
_cell_length_b   7.09201792
_cell_length_c   16.57000868
_cell_angle_alpha   90.00000000
_cell_angle_beta   90.00000000
_cell_angle_gamma   90.00000000
_symmetry_Int_Tables_number   1
_chemical_formula_structural   Y2SiP4O15
_chemical_formula_sum   'Y4 Si2 P8 O30'
_cell_volume   657.86050301
_cell_formula_units_Z   2
loop_
 _symmetry_equiv_pos_site_id
 _symmetry_equiv_pos_as_xyz
  1  'x, y, z'
loop_
 _atom_site_type_symbol
 _atom_site_label
 _atom_site_symmetry_multiplicity
 _atom_site_fract_x
 _atom_site_fract_y
 _atom_site_fract_z
 _atom_site_occupancy
  Y  Y0  1  0.86468910  0.40613809  0.78242633  1
  Y  Y1  1  0.86468910  0.59386191  0.21757367  1
  Y  Y2  1  0.13531090  0.09386191  0.28242633  1
  Y  Y3  1  0.13531090  0.90613809  0.71757367  1
  Si  Si4  1  0.45885596  0.50000000  0.50000000  1
  Si  Si5  1  0.54114404  -0.00000000  -0.00000000  1
  P  P6  1  0.69236601  0.91092985  0.83069840  1
  P  P7  1  0.69236601  0.08907015  0.16930160  1
  P  P8  1  0.30763399  0.58907015  0.33069840  1
  P  P9  1  0.30763399  0.41092985  0.66930160  1
  P  P10  1  0.64270955  0.13717692  0.42582266  1
  P  P11  1  0.64270955  0.86282308  0.57417734  1
  P  P12  1  0.35729045  0.36282308  0.92582266  1
  P  P13  1  0.35729045  0.63717692  0.07417734  1
  O  O14  1  0.64258204  0.33685403  0.46877444  1
  O  O15  1  0.64258204  0.66314597  0.53122556  1
  O  O16  1  0.35741796  0.16314597  0.96877444  1
  O  O17  1  0.35741796  0.83685403  0.03122556  1
  O  O18  1  0.71645990  0.07349059  0.07265138  1
  O  O19  1  0.71645990  0.92650941  0.92734862  1
  O  O20  1  0.28354010  0.42650941  0.57265138  1
  O  O21  1  0.28354010  0.57349059  0.42734862  1
  O  O22  1  0.83507757  0.07685880  0.79356200  1
  O  O23  1  0.83507757  0.92314120  0.20643800  1
  O  O24  1  0.16492243  0.42314120  0.29356200  1
  O  O25  1  0.16492243  0.57685880  0.70643800  1
  O  O26  1  0.42758398  0.90978660  0.81121337  1
  O  O27  1  0.42758398  0.09021340  0.18878663  1
  O  O28  1  0.57241602  0.59021340  0.31121337  1
  O  O29  1  0.57241602  0.40978660  0.68878663  1
  O  O30  1  0.83404295  0.73569464  0.80315984  1
  O  O31  1  0.83404295  0.26430536  0.19684016  1
  O  O32  1  0.16595705  0.76430536  0.30315984  1
  O  O33  1  0.16595705  0.23569464  0.69684016  1
  O  O34  1  0.42502177  0.11414293  0.37414783  1
  O  O35  1  0.42502177  0.88585707  0.62585217  1
  O  O36  1  0.57497823  0.38585707  0.87414783  1
  O  O37  1  0.57497823  0.61414293  0.12585217  1
  O  O38  1  0.88127919  0.10780404  0.38687548  1
  O  O39  1  0.88127919  0.89219596  0.61312452  1
  O  O40  1  0.11872081  0.39219596  0.88687548  1
  O  O41  1  0.11872081  0.60780404  0.11312452  1
  O  O42  1  0.61136768  -0.00000000  0.50000000  1
  O  O43  1  0.38863232  0.50000000  -0.00000000  1
