# generated using pymatgen
data_Cd(HO)2
_symmetry_space_group_name_H-M   'P 1'
_cell_length_a   3.58567508
_cell_length_b   3.53838218
_cell_length_c   4.80522541
_cell_angle_alpha   90.00000036
_cell_angle_beta   94.44941564
_cell_angle_gamma   119.56464557
_symmetry_Int_Tables_number   1
_chemical_formula_structural   Cd(HO)2
_chemical_formula_sum   'Cd1 H2 O2'
_cell_volume   52.81706534
_cell_formula_units_Z   1
loop_
 _symmetry_equiv_pos_site_id
 _symmetry_equiv_pos_as_xyz
  1  'x, y, z'
loop_
 _atom_site_type_symbol
 _atom_site_label
 _atom_site_symmetry_multiplicity
 _atom_site_fract_x
 _atom_site_fract_y
 _atom_site_fract_z
 _atom_site_occupancy
  Cd  Cd0  1  0.00000000  0.02282189  0.00000000  1
  H  H1  1  0.58497153  0.41089637  0.56952022  1
  H  H2  1  0.41502847  0.82592484  0.43047978  1
  O  O3  1  0.61321293  0.33485491  0.76405086  1
  O  O4  1  0.38678707  0.72164198  0.23594914  1
