# generated using pymatgen
data_MnH8(NF3)2
_symmetry_space_group_name_H-M   'P 1'
_cell_length_a   5.94793687
_cell_length_b   5.94810462
_cell_length_c   9.53638984
_cell_angle_alpha   89.99960600
_cell_angle_beta   90.00019782
_cell_angle_gamma   120.00093441
_symmetry_Int_Tables_number   1
_chemical_formula_structural   MnH8(NF3)2
_chemical_formula_sum   'Mn2 H16 N4 F12'
_cell_volume   292.18336600
_cell_formula_units_Z   2
loop_
 _symmetry_equiv_pos_site_id
 _symmetry_equiv_pos_as_xyz
  1  'x, y, z'
loop_
 _atom_site_type_symbol
 _atom_site_label
 _atom_site_symmetry_multiplicity
 _atom_site_fract_x
 _atom_site_fract_y
 _atom_site_fract_z
 _atom_site_occupancy
  Mn  Mn0  1  0.33333517  0.66667292  0.25079741  1
  Mn  Mn1  1  0.66666483  0.33333775  0.75079741  1
  H  H2  1  0.09431103  0.90569801  0.55625733  1
  H  H3  1  0.14505795  0.57254537  0.91227099  1
  H  H4  1  0.33330196  0.66669945  0.76804795  1
  H  H5  1  0.99999965  0.00000480  0.20056482  1
  H  H6  1  0.00000035  0.00000615  0.70056482  1
  H  H7  1  0.09431139  0.18862004  0.55625399  1
  H  H8  1  0.42745722  0.85494001  0.91227009  1
  H  H9  1  0.18862193  0.09431535  0.05625489  1
  H  H10  1  0.42746509  0.57254438  0.91224960  1
  H  H11  1  0.57254278  0.42748278  0.41227009  1
  H  H12  1  0.81137807  0.90569342  0.55625489  1
  H  H13  1  0.57253491  0.14507929  0.41224960  1
  H  H14  1  0.66669804  0.33339650  0.26804795  1
  H  H15  1  0.90568897  0.81138699  0.05625733  1
  H  H16  1  0.85494205  0.42748742  0.41227099  1
  H  H17  1  0.90568861  0.09430965  0.05625399  1
  N  N18  1  0.33331489  0.66668665  0.87587265  1
  N  N19  1  0.00000053  0.00000300  0.09272224  1
  N  N20  1  -0.00000053  0.00000246  0.59272224  1
  N  N21  1  0.66668511  0.33337076  0.37587265  1
  F  F22  1  0.18561443  0.81439116  0.36216665  1
  F  F23  1  0.04003922  0.52003529  0.13939717  1
  F  F24  1  0.18559163  0.37119210  0.36214769  1
  F  F25  1  0.47998045  0.95995978  0.13939442  1
  F  F26  1  0.47998048  0.52003170  0.13939452  1
  F  F27  1  0.62881861  0.81441080  0.36214759  1
  F  F28  1  0.37118139  0.18559220  0.86214759  1
  F  F29  1  0.52001955  0.47997933  0.63939442  1
  F  F30  1  0.52001952  0.04005122  0.63939452  1
  F  F31  1  0.81438557  0.62877674  0.86216665  1
  F  F32  1  0.95996078  0.47999607  0.63939717  1
  F  F33  1  0.81440837  0.18560047  0.86214769  1
