# generated using pymatgen
data_ZnP2
_symmetry_space_group_name_H-M   'P 1'
_cell_length_a   7.32674757
_cell_length_b   7.61182073
_cell_length_c   8.89691571
_cell_angle_alpha   102.36203200
_cell_angle_beta   90.00000000
_cell_angle_gamma   90.00000000
_symmetry_Int_Tables_number   1
_chemical_formula_structural   ZnP2
_chemical_formula_sum   'Zn8 P16'
_cell_volume   484.67575168
_cell_formula_units_Z   8
loop_
 _symmetry_equiv_pos_site_id
 _symmetry_equiv_pos_as_xyz
  1  'x, y, z'
loop_
 _atom_site_type_symbol
 _atom_site_label
 _atom_site_symmetry_multiplicity
 _atom_site_fract_x
 _atom_site_fract_y
 _atom_site_fract_z
 _atom_site_occupancy
  P  P0  1  0.24402328  0.89540582  0.07797376  1
  P  P1  1  0.74402328  0.60459418  0.92202624  1
  P  P2  1  0.75597672  0.10459418  0.92202624  1
  P  P3  1  0.25597672  0.39540582  0.07797376  1
  P  P4  1  0.01614658  0.92761989  0.24201153  1
  P  P5  1  0.51614658  0.57238011  0.75798847  1
  P  P6  1  0.98385342  0.07238011  0.75798847  1
  P  P7  1  0.48385342  0.42761989  0.24201153  1
  P  P8  1  0.42686312  0.21641346  0.37457731  1
  P  P9  1  0.92686312  0.28358654  0.62542269  1
  P  P10  1  0.57313688  0.78358654  0.62542269  1
  P  P11  1  0.07313688  0.71641346  0.37457731  1
  P  P12  1  0.01949537  0.44088405  0.23513437  1
  P  P13  1  0.51949537  0.05911595  0.76486563  1
  P  P14  1  0.98050463  0.55911595  0.76486563  1
  P  P15  1  0.48050463  0.94088405  0.23513437  1
  Zn  Zn16  1  0.40392393  0.72453160  0.39250683  1
  Zn  Zn17  1  0.90392393  0.77546840  0.60749317  1
  Zn  Zn18  1  0.59607607  0.27546840  0.60749317  1
  Zn  Zn19  1  0.09607607  0.22453160  0.39250683  1
  Zn  Zn20  1  0.75311276  0.89398111  0.08074138  1
  Zn  Zn21  1  0.25311276  0.60601889  0.91925862  1
  Zn  Zn22  1  0.24688724  0.10601889  0.91925862  1
  Zn  Zn23  1  0.74688724  0.39398111  0.08074138  1
