# generated using pymatgen
data_Na2Al2Si3O10
_symmetry_space_group_name_H-M   'P 1'
_cell_length_a   6.49778815
_cell_length_b   8.80026595
_cell_length_c   9.11129844
_cell_angle_alpha   81.75718083
_cell_angle_beta   69.10977562
_cell_angle_gamma   68.33486208
_symmetry_Int_Tables_number   1
_chemical_formula_structural   Na2Al2Si3O10
_chemical_formula_sum   'Na4 Al4 Si6 O20'
_cell_volume   452.32957682
_cell_formula_units_Z   2
loop_
 _symmetry_equiv_pos_site_id
 _symmetry_equiv_pos_as_xyz
  1  'x, y, z'
loop_
 _atom_site_type_symbol
 _atom_site_label
 _atom_site_symmetry_multiplicity
 _atom_site_fract_x
 _atom_site_fract_y
 _atom_site_fract_z
 _atom_site_occupancy
  Na  Na0  1  0.90147076  0.12513458  0.36276555  1
  Na  Na1  1  0.38937089  0.87486542  0.63723445  1
  Na  Na2  1  0.03259537  0.58578012  0.14478473  1
  Na  Na3  1  0.76316022  0.41421988  0.85521527  1
  Al  Al4  1  0.48397482  0.04920797  0.21318541  1
  Al  Al5  1  0.74636820  0.95079203  0.78681459  1
  Al  Al6  1  0.46356749  0.53410876  0.28316673  1
  Al  Al7  1  0.28084298  0.46589124  0.71683327  1
  Si  Si8  1  0.99575918  0.00000000  -0.00000000  1
  Si  Si9  1  0.75360279  0.50000000  0.50000000  1
  Si  Si10  1  0.25442175  0.27399952  0.46992898  1
  Si  Si11  1  0.99835024  0.72600048  0.53007102  1
  Si  Si12  1  0.28003026  0.22021250  0.95996428  1
  Si  Si13  1  0.46020704  0.77978750  0.04003572  1
  O  O14  1  0.75609400  0.08096486  0.14444101  1
  O  O15  1  0.98149987  0.91903514  0.85555899  1
  O  O16  1  0.71660488  0.46866658  0.34051183  1
  O  O17  1  0.52578330  0.53133342  0.65948817  1
  O  O18  1  0.35619247  0.08089514  0.42044013  1
  O  O19  1  0.85752775  0.91910486  0.57955987  1
  O  O20  1  0.18772026  0.41781580  0.92131475  1
  O  O21  1  0.52685081  0.58218420  0.07868525  1
  O  O22  1  0.25004138  0.17656148  0.14462563  1
  O  O23  1  0.57122848  0.82343852  0.85537437  1
  O  O24  1  0.34525365  0.29526180  0.60678531  1
  O  O25  1  0.24730077  0.70473820  0.39321469  1
  O  O26  1  0.55440030  0.14871632  0.85039005  1
  O  O27  1  0.55350667  0.85128368  0.14960995  1
  O  O28  1  0.33267516  0.38513971  0.31550792  1
  O  O29  1  0.03332279  0.61486029  0.68449208  1
  O  O30  1  0.10533430  0.14646749  0.91787270  1
  O  O31  1  0.16967449  0.85353251  0.08212730  1
  O  O32  1  0.96005655  0.33472220  0.53443138  1
  O  O33  1  0.82921013  0.66527780  0.46556862  1
