# generated using pymatgen
data_Sr(BeN)2
_symmetry_space_group_name_H-M   'P 1'
_cell_length_a   5.50992236
_cell_length_b   5.50992236
_cell_length_c   5.50992236
_cell_angle_alpha   92.31188992
_cell_angle_beta   118.67432769
_cell_angle_gamma   118.67432758
_symmetry_Int_Tables_number   1
_chemical_formula_structural   Sr(BeN)2
_chemical_formula_sum   'Sr2 Be4 N4'
_cell_volume   120.54668416
_cell_formula_units_Z   2
loop_
 _symmetry_equiv_pos_site_id
 _symmetry_equiv_pos_as_xyz
  1  'x, y, z'
loop_
 _atom_site_type_symbol
 _atom_site_label
 _atom_site_symmetry_multiplicity
 _atom_site_fract_x
 _atom_site_fract_y
 _atom_site_fract_z
 _atom_site_occupancy
  Be  Be0  1  0.75457017  0.12728509  0.62728509  1
  Be  Be1  1  0.50000000  0.62728509  0.87271491  1
  Be  Be2  1  0.24542983  0.87271491  0.37271491  1
  Be  Be3  1  0.50000000  0.37271491  0.12728509  1
  N  N4  1  0.50000000  0.16782764  0.33217236  1
  N  N5  1  0.83565527  0.66782764  0.16782764  1
  N  N6  1  0.16434473  0.33217236  0.83217236  1
  N  N7  1  0.50000000  0.83217236  0.66782764  1
  Sr  Sr8  1  0.00000000  0.75000000  0.75000000  1
  Sr  Sr9  1  0.00000000  0.25000000  0.25000000  1
