# generated using pymatgen
data_K2Zn(PO3)4
_symmetry_space_group_name_H-M   'P 1'
_cell_length_a   7.82133701
_cell_length_b   8.47653154
_cell_length_c   8.47653154
_cell_angle_alpha   97.08146968
_cell_angle_beta   97.98964963
_cell_angle_gamma   97.98964963
_symmetry_Int_Tables_number   1
_chemical_formula_structural   K2Zn(PO3)4
_chemical_formula_sum   'K4 Zn2 P8 O24'
_cell_volume   545.26095084
_cell_formula_units_Z   2
loop_
 _symmetry_equiv_pos_site_id
 _symmetry_equiv_pos_as_xyz
  1  'x, y, z'
loop_
 _atom_site_type_symbol
 _atom_site_label
 _atom_site_symmetry_multiplicity
 _atom_site_fract_x
 _atom_site_fract_y
 _atom_site_fract_z
 _atom_site_occupancy
  K  K0  1  0.41624126  0.24201800  0.49291190  1
  K  K1  1  0.91624126  0.49291190  0.24201800  1
  K  K2  1  0.59159786  0.80006902  0.53184082  1
  K  K3  1  0.09159786  0.53184082  0.80006902  1
  Zn  Zn4  1  0.75779299  0.15825837  0.84910030  1
  Zn  Zn5  1  0.25779299  0.84910030  0.15825837  1
  P  P6  1  0.66802439  0.03468768  0.18415242  1
  P  P7  1  0.16802439  0.18415242  0.03468768  1
  P  P8  1  0.92742456  0.17291036  0.49640488  1
  P  P9  1  0.42742456  0.49640488  0.17291036  1
  P  P10  1  0.08408851  0.86724475  0.49460308  1
  P  P11  1  0.58408851  0.49460308  0.86724475  1
  P  P12  1  0.32040569  0.96377005  0.81155992  1
  P  P13  1  0.82040569  0.81155992  0.96377005  1
  O  O14  1  0.02302510  0.34055243  0.51062300  1
  O  O15  1  0.52302510  0.51062300  0.34055243  1
  O  O16  1  0.79541886  0.13007725  0.60412758  1
  O  O17  1  0.29541886  0.60412758  0.13007725  1
  O  O18  1  0.83651536  0.12244295  0.31114038  1
  O  O19  1  0.33651536  0.31114038  0.12244295  1
  O  O20  1  0.07883845  0.05901558  0.50788843  1
  O  O21  1  0.57883845  0.50788843  0.05901558  1
  O  O22  1  0.22057299  0.83281063  0.39056357  1
  O  O23  1  0.72057299  0.39056357  0.83281063  1
  O  O24  1  0.90794779  0.76654268  0.45760628  1
  O  O25  1  0.40794779  0.45760628  0.76654268  1
  O  O26  1  0.16669038  0.85341703  0.67833706  1
  O  O27  1  0.66669038  0.67833706  0.85341703  1
  O  O28  1  0.47044188  0.02529734  0.73066359  1
  O  O29  1  0.97044188  0.73066359  0.02529734  1
  O  O30  1  0.34596969  0.86006320  0.94166117  1
  O  O31  1  0.84596969  0.94166117  0.86006320  1
  O  O32  1  0.22934865  0.11605182  0.86897160  1
  O  O33  1  0.72934865  0.86897160  0.11605182  1
  O  O34  1  0.51816344  0.98859272  0.27219877  1
  O  O35  1  0.01816344  0.27219877  0.98859272  1
  O  O36  1  0.64949214  0.14377294  0.05805043  1
  O  O37  1  0.14949214  0.05805043  0.14377294  1
