# generated using pymatgen
data_ZnAsHPbO5
_symmetry_space_group_name_H-M   'P 1'
_cell_length_a   6.19840447
_cell_length_b   7.81000467
_cell_length_c   9.47579290
_cell_angle_alpha   90.00000000
_cell_angle_beta   90.00000000
_cell_angle_gamma   90.00000000
_symmetry_Int_Tables_number   1
_chemical_formula_structural   ZnAsHPbO5
_chemical_formula_sum   'Zn4 As4 H4 Pb4 O20'
_cell_volume   458.71903939
_cell_formula_units_Z   4
loop_
 _symmetry_equiv_pos_site_id
 _symmetry_equiv_pos_as_xyz
  1  'x, y, z'
loop_
 _atom_site_type_symbol
 _atom_site_label
 _atom_site_symmetry_multiplicity
 _atom_site_fract_x
 _atom_site_fract_y
 _atom_site_fract_z
 _atom_site_occupancy
  Pb  Pb0  1  0.03362501  0.36867976  0.17144668  1
  Pb  Pb1  1  0.53362501  0.13132024  0.82855332  1
  Pb  Pb2  1  0.96637499  0.86867976  0.32855332  1
  Pb  Pb3  1  0.46637499  0.63132024  0.67144668  1
  As  As4  1  0.98612378  0.37696378  0.81475874  1
  As  As5  1  0.48612378  0.12303622  0.18524126  1
  As  As6  1  0.01387622  0.87696378  0.68524126  1
  As  As7  1  0.51387622  0.62303622  0.31475874  1
  Zn  Zn8  1  0.23086468  0.22965489  0.51247252  1
  Zn  Zn9  1  0.73086468  0.27034511  0.48752748  1
  Zn  Zn10  1  0.76913532  0.72965489  0.98752748  1
  Zn  Zn11  1  0.26913532  0.77034511  0.01247252  1
  O  O12  1  0.49265701  0.44638278  0.42625174  1
  O  O13  1  0.99265701  0.05361722  0.57374826  1
  O  O14  1  0.50734299  0.94638278  0.07374826  1
  O  O15  1  0.00734299  0.55361722  0.92625174  1
  O  O16  1  0.43868511  0.29580712  0.07661340  1
  O  O17  1  0.93868511  0.20419288  0.92338660  1
  O  O18  1  0.56131489  0.79580712  0.42338660  1
  O  O19  1  0.06131489  0.70419288  0.57661340  1
  O  O20  1  0.72749714  0.14271402  0.27801804  1
  O  O21  1  0.22749714  0.35728598  0.72198196  1
  O  O22  1  0.27250286  0.64271402  0.22198196  1
  O  O23  1  0.77250286  0.85728598  0.77801804  1
  O  O24  1  0.73929430  0.61142483  0.20562413  1
  O  O25  1  0.23929430  0.88857517  0.79437587  1
  O  O26  1  0.26070570  0.11142483  0.29437587  1
  O  O27  1  0.76070570  0.38857517  0.70562413  1
  O  O28  1  0.50452052  0.11455011  0.56212059  1
  O  O29  1  0.00452052  0.38544989  0.43787941  1
  O  O30  1  0.49547948  0.61455011  0.93787941  1
  O  O31  1  0.99547948  0.88544989  0.06212059  1
  H  H32  1  0.51185601  0.00429860  0.51055058  1
  H  H33  1  0.01185601  0.49570140  0.48944942  1
  H  H34  1  0.48814399  0.50429860  0.98944942  1
  H  H35  1  0.98814399  0.99570140  0.01055058  1
