# generated using pymatgen
data_VOF3
_symmetry_space_group_name_H-M   'P 1'
_cell_length_a   5.64757614
_cell_length_b   5.64757627
_cell_length_c   4.96826429
_cell_angle_alpha   91.53230911
_cell_angle_beta   88.46769688
_cell_angle_gamma   116.98462126
_symmetry_Int_Tables_number   1
_chemical_formula_structural   VOF3
_chemical_formula_sum   'V2 O2 F6'
_cell_volume   141.14172691
_cell_formula_units_Z   2
loop_
 _symmetry_equiv_pos_site_id
 _symmetry_equiv_pos_as_xyz
  1  'x, y, z'
loop_
 _atom_site_type_symbol
 _atom_site_label
 _atom_site_symmetry_multiplicity
 _atom_site_fract_x
 _atom_site_fract_y
 _atom_site_fract_z
 _atom_site_occupancy
  V  V0  1  0.33115845  0.33115845  0.25000000  1
  V  V1  1  0.63680790  0.63680790  0.75000000  1
  O  O2  1  0.32582638  0.50617630  0.95672150  1
  O  O3  1  0.50617630  0.32582638  0.54327850  1
  F  F4  1  0.26094454  0.01880276  0.11709991  1
  F  F5  1  0.48994492  0.71932386  0.43996336  1
  F  F6  1  0.72260269  0.96775820  0.85287271  1
  F  F7  1  0.71932386  0.48994492  0.06003664  1
  F  F8  1  0.96775820  0.72260269  0.64712729  1
  F  F9  1  0.01880276  0.26094454  0.38290009  1
