# generated using pymatgen
data_Ca3AlSb3
_symmetry_space_group_name_H-M   'P 1'
_cell_length_a   4.52391758
_cell_length_b   12.96918840
_cell_length_c   14.34802471
_cell_angle_alpha   90.00000000
_cell_angle_beta   90.00000000
_cell_angle_gamma   90.00000000
_symmetry_Int_Tables_number   1
_chemical_formula_structural   Ca3AlSb3
_chemical_formula_sum   'Ca12 Al4 Sb12'
_cell_volume   841.82069710
_cell_formula_units_Z   4
loop_
 _symmetry_equiv_pos_site_id
 _symmetry_equiv_pos_as_xyz
  1  'x, y, z'
loop_
 _atom_site_type_symbol
 _atom_site_label
 _atom_site_symmetry_multiplicity
 _atom_site_fract_x
 _atom_site_fract_y
 _atom_site_fract_z
 _atom_site_occupancy
  Al  Al0  1  0.25000000  0.56785933  0.79659867  1
  Al  Al1  1  0.75000000  0.43214067  0.20340133  1
  Al  Al2  1  0.25000000  0.06785933  0.70340133  1
  Al  Al3  1  0.75000000  0.93214067  0.29659867  1
  Ca  Ca4  1  0.25000000  0.55812201  0.38791779  1
  Ca  Ca5  1  0.75000000  0.44187799  0.61208221  1
  Ca  Ca6  1  0.25000000  0.05812201  0.11208221  1
  Ca  Ca7  1  0.75000000  0.94187799  0.88791779  1
  Ca  Ca8  1  0.25000000  0.34997827  0.99665803  1
  Ca  Ca9  1  0.75000000  0.65002173  0.00334197  1
  Ca  Ca10  1  0.25000000  0.84997827  0.50334197  1
  Ca  Ca11  1  0.75000000  0.15002173  0.49665803  1
  Ca  Ca12  1  0.75000000  0.72756401  0.72070189  1
  Ca  Ca13  1  0.25000000  0.27243599  0.27929811  1
  Ca  Ca14  1  0.75000000  0.22756401  0.77929811  1
  Ca  Ca15  1  0.25000000  0.77243599  0.22070189  1
  Sb  Sb16  1  0.25000000  0.75660802  0.88146601  1
  Sb  Sb17  1  0.75000000  0.24339198  0.11853399  1
  Sb  Sb18  1  0.25000000  0.25660802  0.61853399  1
  Sb  Sb19  1  0.75000000  0.74339198  0.38146601  1
  Sb  Sb20  1  0.25000000  0.61418260  0.60927296  1
  Sb  Sb21  1  0.75000000  0.38581740  0.39072704  1
  Sb  Sb22  1  0.25000000  0.11418260  0.89072704  1
  Sb  Sb23  1  0.75000000  0.88581740  0.10927296  1
  Sb  Sb24  1  0.25000000  0.54009389  0.14958175  1
  Sb  Sb25  1  0.75000000  0.45990611  0.85041825  1
  Sb  Sb26  1  0.25000000  0.04009389  0.35041825  1
  Sb  Sb27  1  0.75000000  0.95990611  0.64958175  1
