# generated using pymatgen
data_SiAs
_symmetry_space_group_name_H-M   'P 1'
_cell_length_a   3.69631912
_cell_length_b   9.05702087
_cell_length_c   10.22790136
_cell_angle_alpha   111.84703156
_cell_angle_beta   90.00000000
_cell_angle_gamma   101.77437372
_symmetry_Int_Tables_number   1
_chemical_formula_structural   SiAs
_chemical_formula_sum   'Si6 As6'
_cell_volume   310.03905226
_cell_formula_units_Z   6
loop_
 _symmetry_equiv_pos_site_id
 _symmetry_equiv_pos_as_xyz
  1  'x, y, z'
loop_
 _atom_site_type_symbol
 _atom_site_label
 _atom_site_symmetry_multiplicity
 _atom_site_fract_x
 _atom_site_fract_y
 _atom_site_fract_z
 _atom_site_occupancy
  Si  Si0  1  0.13687554  0.27375109  0.40979521  1
  Si  Si1  1  0.86312446  0.72624891  0.59020479  1
  Si  Si2  1  0.23109367  0.46218735  0.29926994  1
  Si  Si3  1  0.76890633  0.53781265  0.70073006  1
  Si  Si4  1  0.56503578  0.13007155  0.09181764  1
  Si  Si5  1  0.43496422  0.86992845  0.90818236  1
  As  As6  1  0.14239452  0.28478904  0.05447497  1
  As  As7  1  0.85760548  0.71521096  0.94552503  1
  As  As8  1  0.17601382  0.35202763  0.66196025  1
  As  As9  1  0.82398618  0.64797237  0.33803975  1
  As  As10  1  0.54520904  0.09041807  0.31413466  1
  As  As11  1  0.45479096  0.90958193  0.68586534  1
