# generated using pymatgen
data_LiH5S(NO2)2
_symmetry_space_group_name_H-M   'P 1'
_cell_length_a   5.13729097
_cell_length_b   9.16196568
_cell_length_c   10.05238295
_cell_angle_alpha   90.00000000
_cell_angle_beta   90.00000000
_cell_angle_gamma   90.00000000
_symmetry_Int_Tables_number   1
_chemical_formula_structural   LiH5S(NO2)2
_chemical_formula_sum   'Li4 H20 S4 N8 O16'
_cell_volume   473.14237967
_cell_formula_units_Z   4
loop_
 _symmetry_equiv_pos_site_id
 _symmetry_equiv_pos_as_xyz
  1  'x, y, z'
loop_
 _atom_site_type_symbol
 _atom_site_label
 _atom_site_symmetry_multiplicity
 _atom_site_fract_x
 _atom_site_fract_y
 _atom_site_fract_z
 _atom_site_occupancy
  Li  Li0  1  0.74760001  0.56485512  0.66876015  1
  Li  Li1  1  0.24760001  0.43514488  0.33123985  1
  Li  Li2  1  0.74760001  0.93514488  0.16876015  1
  Li  Li3  1  0.24760001  0.06485512  0.83123985  1
  S  S4  1  0.74538436  0.86773415  0.84164955  1
  S  S5  1  0.24538436  0.13226585  0.15835045  1
  S  S6  1  0.74538436  0.63226585  0.34164955  1
  S  S7  1  0.24538436  0.36773415  0.65835045  1
  O  O8  1  0.46245735  0.88808630  0.80801789  1
  O  O9  1  0.96245735  0.11191370  0.19198211  1
  O  O10  1  0.46245735  0.61191370  0.30801789  1
  O  O11  1  0.96245735  0.38808630  0.69198211  1
  O  O12  1  0.76412661  0.84225151  0.98946687  1
  O  O13  1  0.26412661  0.15774849  0.01053313  1
  O  O14  1  0.76412661  0.65774849  0.48946687  1
  O  O15  1  0.26412661  0.34225151  0.51053313  1
  O  O16  1  0.85032072  0.73883091  0.77108670  1
  O  O17  1  0.35032072  0.26116909  0.22891330  1
  O  O18  1  0.85032072  0.76116909  0.27108670  1
  O  O19  1  0.35032072  0.23883091  0.72891330  1
  O  O20  1  0.39056761  0.50210739  0.69443847  1
  O  O21  1  0.89056761  0.49789261  0.30556153  1
  O  O22  1  0.39056761  0.99789261  0.19443847  1
  O  O23  1  0.89056761  0.00210739  0.80556153  1
  N  N24  1  0.25543836  0.58123637  0.97827899  1
  N  N25  1  0.75543836  0.41876363  0.02172101  1
  N  N26  1  0.25543836  0.91876363  0.47827899  1
  N  N27  1  0.75543836  0.08123637  0.52172101  1
  N  N28  1  0.26492221  0.78879156  0.55920005  1
  N  N29  1  0.76492221  0.21120844  0.44079995  1
  N  N30  1  0.26492221  0.71120844  0.05920005  1
  N  N31  1  0.76492221  0.28879156  0.94079995  1
  H  H32  1  0.23177883  0.61468490  0.88158096  1
  H  H33  1  0.73177883  0.38531510  0.11841904  1
  H  H34  1  0.23177883  0.88531510  0.38158096  1
  H  H35  1  0.73177883  0.11468490  0.61841904  1
  H  H36  1  0.43684325  0.53114661  0.98571334  1
  H  H37  1  0.93684325  0.46885339  0.01428666  1
  H  H38  1  0.43684325  0.96885339  0.48571334  1
  H  H39  1  0.93684325  0.03114661  0.51428666  1
  H  H40  1  0.31223654  0.81806063  0.65694279  1
  H  H41  1  0.81223654  0.18193937  0.34305721  1
  H  H42  1  0.31223654  0.68193937  0.15694279  1
  H  H43  1  0.81223654  0.31806063  0.84305721  1
  H  H44  1  0.08202353  0.74010672  0.55638982  1
  H  H45  1  0.58202353  0.25989328  0.44361018  1
  H  H46  1  0.08202353  0.75989328  0.05638982  1
  H  H47  1  0.58202353  0.24010672  0.94361018  1
  H  H48  1  0.40620063  0.71534512  0.52691416  1
  H  H49  1  0.90620063  0.28465488  0.47308584  1
  H  H50  1  0.40620063  0.78465488  0.02691416  1
  H  H51  1  0.90620063  0.21534512  0.97308584  1
