# generated using pymatgen
data_Li3BN2
_symmetry_space_group_name_H-M   'P 1'
_cell_length_a   5.14872013
_cell_length_b   6.75060384
_cell_length_c   7.09604283
_cell_angle_alpha   90.00000000
_cell_angle_beta   90.00000000
_cell_angle_gamma   111.95013238
_symmetry_Int_Tables_number   1
_chemical_formula_structural   Li3BN2
_chemical_formula_sum   'Li12 B4 N8'
_cell_volume   228.75812200
_cell_formula_units_Z   4
loop_
 _symmetry_equiv_pos_site_id
 _symmetry_equiv_pos_as_xyz
  1  'x, y, z'
loop_
 _atom_site_type_symbol
 _atom_site_label
 _atom_site_symmetry_multiplicity
 _atom_site_fract_x
 _atom_site_fract_y
 _atom_site_fract_z
 _atom_site_occupancy
  Li  Li0  1  0.24843616  0.49776552  0.48170973  1
  Li  Li1  1  0.25156384  0.00223448  0.98170973  1
  Li  Li2  1  0.75156384  0.50223448  0.51829027  1
  Li  Li3  1  0.74843616  0.99776552  0.01829027  1
  Li  Li4  1  0.12610445  0.37550162  0.01241144  1
  Li  Li5  1  0.37389555  0.12449838  0.51241144  1
  Li  Li6  1  0.87389555  0.62449838  0.98758856  1
  Li  Li7  1  0.62610445  0.87550162  0.48758856  1
  Li  Li8  1  0.57200493  0.31363441  0.20819098  1
  Li  Li9  1  0.92799507  0.18636559  0.70819098  1
  Li  Li10  1  0.42799507  0.68636559  0.79180902  1
  Li  Li11  1  0.07200493  0.81363441  0.29180902  1
  B  B12  1  0.96137618  0.17631048  0.32017972  1
  B  B13  1  0.53862382  0.32368952  0.82017972  1
  B  B14  1  0.03862382  0.82368952  0.67982028  1
  B  B15  1  0.46137618  0.67631048  0.17982028  1
  N  N16  1  0.78463549  0.21946982  0.43810348  1
  N  N17  1  0.71536451  0.28053018  0.93810348  1
  N  N18  1  0.21536451  0.78053018  0.56189652  1
  N  N19  1  0.28463549  0.71946982  0.06189652  1
  N  N20  1  0.14021284  0.13379351  0.20450563  1
  N  N21  1  0.35978716  0.36620649  0.70450563  1
  N  N22  1  0.85978716  0.86620649  0.79549437  1
  N  N23  1  0.64021284  0.63379351  0.29549437  1
