# generated using pymatgen
data_Sr3P4
_symmetry_space_group_name_H-M   'P 1'
_cell_length_a   5.87104644
_cell_length_b   7.76306640
_cell_length_c   9.21531341
_cell_angle_alpha   83.08159260
_cell_angle_beta   71.42483979
_cell_angle_gamma   67.78150408
_symmetry_Int_Tables_number   1
_chemical_formula_structural   Sr3P4
_chemical_formula_sum   'Sr6 P8'
_cell_volume   368.56791141
_cell_formula_units_Z   2
loop_
 _symmetry_equiv_pos_site_id
 _symmetry_equiv_pos_as_xyz
  1  'x, y, z'
loop_
 _atom_site_type_symbol
 _atom_site_label
 _atom_site_symmetry_multiplicity
 _atom_site_fract_x
 _atom_site_fract_y
 _atom_site_fract_z
 _atom_site_occupancy
  P  P0  1  0.42237582  0.66145795  0.49807612  1
  P  P1  1  0.58190989  0.33854205  0.50192388  1
  P  P2  1  0.83383376  0.83854205  0.99807612  1
  P  P3  1  0.67045194  0.16145795  0.00192388  1
  P  P4  1  0.34104523  0.18321349  0.65383458  1
  P  P5  1  0.17809331  0.81678651  0.34616542  1
  P  P6  1  0.74487982  0.68321349  0.84616542  1
  P  P7  1  0.27425873  0.31678651  0.15383458  1
  Sr  Sr8  1  0.58056786  0.99652082  0.33630405  1
  Sr  Sr9  1  0.91339273  0.00347918  0.66369595  1
  Sr  Sr10  1  0.32708868  0.50347918  0.83630405  1
  Sr  Sr11  1  0.66687191  0.49652082  0.16369595  1
  Sr  Sr12  1  0.00581517  0.50000000  0.50000000  1
  Sr  Sr13  1  0.25581517  0.00000000  0.00000000  1
