# generated using pymatgen
data_Mg(ScS2)2
_symmetry_space_group_name_H-M   'P 1'
_cell_length_a   7.56715579
_cell_length_b   7.56715579
_cell_length_c   7.56715579
_cell_angle_alpha   60.00000004
_cell_angle_beta   60.00000004
_cell_angle_gamma   60.00000000
_symmetry_Int_Tables_number   1
_chemical_formula_structural   Mg(ScS2)2
_chemical_formula_sum   'Mg2 Sc4 S8'
_cell_volume   306.39595519
_cell_formula_units_Z   2
loop_
 _symmetry_equiv_pos_site_id
 _symmetry_equiv_pos_as_xyz
  1  'x, y, z'
loop_
 _atom_site_type_symbol
 _atom_site_label
 _atom_site_symmetry_multiplicity
 _atom_site_fract_x
 _atom_site_fract_y
 _atom_site_fract_z
 _atom_site_occupancy
  Mg  Mg0  1  0.87500000  0.87500000  0.87500000  1
  Mg  Mg1  1  0.12500000  0.12500000  0.12500000  1
  S  S2  1  0.25791967  0.25791967  0.72624098  1
  S  S3  1  0.74208033  0.74208033  0.74208033  1
  S  S4  1  0.74208033  0.74208033  0.27375902  1
  S  S5  1  0.25791967  0.72624098  0.25791967  1
  S  S6  1  0.25791967  0.25791967  0.25791967  1
  S  S7  1  0.27375902  0.74208033  0.74208033  1
  S  S8  1  0.74208033  0.27375902  0.74208033  1
  S  S9  1  0.72624098  0.25791967  0.25791967  1
  Sc  Sc10  1  0.50000000  0.50000000  0.50000000  1
  Sc  Sc11  1  0.50000000  0.00000000  0.50000000  1
  Sc  Sc12  1  0.00000000  0.50000000  0.50000000  1
  Sc  Sc13  1  0.50000000  0.50000000  0.00000000  1
