# generated using pymatgen
data_Cs2Ni3Se4
_symmetry_space_group_name_H-M   'P 1'
_cell_length_a   6.17834540
_cell_length_b   6.17834540
_cell_length_c   8.14805556
_cell_angle_alpha   101.18745667
_cell_angle_beta   101.18745666
_cell_angle_gamma   119.22566024
_symmetry_Int_Tables_number   1
_chemical_formula_structural   Cs2Ni3Se4
_chemical_formula_sum   'Cs2 Ni3 Se4'
_cell_volume   250.67424460
_cell_formula_units_Z   1
loop_
 _symmetry_equiv_pos_site_id
 _symmetry_equiv_pos_as_xyz
  1  'x, y, z'
loop_
 _atom_site_type_symbol
 _atom_site_label
 _atom_site_symmetry_multiplicity
 _atom_site_fract_x
 _atom_site_fract_y
 _atom_site_fract_z
 _atom_site_occupancy
  Ni  Ni0  1  0.00000000  0.50000000  0.00000000  1
  Ni  Ni1  1  0.00000000  0.00000000  0.00000000  1
  Ni  Ni2  1  0.50000000  0.00000000  0.00000000  1
  Se  Se3  1  0.26809958  0.93334504  0.20144462  1
  Se  Se4  1  0.73190042  0.06665496  0.79855538  1
  Se  Se5  1  0.06665496  0.73190042  0.79855538  1
  Se  Se6  1  0.93334504  0.26809958  0.20144462  1
  Cs  Cs7  1  0.34435778  0.34435778  0.68871556  1
  Cs  Cs8  1  0.65564222  0.65564222  0.31128444  1
