# generated using pymatgen
data_VOF3
_symmetry_space_group_name_H-M   'P 1'
_cell_length_a   5.59420962
_cell_length_b   5.31312997
_cell_length_c   5.49012027
_cell_angle_alpha   90.00000000
_cell_angle_beta   119.76681879
_cell_angle_gamma   90.00000000
_symmetry_Int_Tables_number   1
_chemical_formula_structural   VOF3
_chemical_formula_sum   'V2 O2 F6'
_cell_volume   141.65024628
_cell_formula_units_Z   2
loop_
 _symmetry_equiv_pos_site_id
 _symmetry_equiv_pos_as_xyz
  1  'x, y, z'
loop_
 _atom_site_type_symbol
 _atom_site_label
 _atom_site_symmetry_multiplicity
 _atom_site_fract_x
 _atom_site_fract_y
 _atom_site_fract_z
 _atom_site_occupancy
  V  V0  1  0.93783784  0.02189564  0.99240541  1
  V  V1  1  0.43783784  0.47810436  0.99240541  1
  O  O2  1  0.17722691  0.29227706  0.92778687  1
  O  O3  1  0.67722691  0.20772294  0.92778687  1
  F  F4  1  0.33754913  0.77427454  0.07704120  1
  F  F5  1  0.18195659  0.08537946  0.34740325  1
  F  F6  1  0.83754913  0.72572546  0.07704120  1
  F  F7  1  0.36542952  0.58069933  0.65536326  1
  F  F8  1  0.68195659  0.41462054  0.34740325  1
  F  F9  1  0.86542952  0.91930067  0.65536326  1
