# generated using pymatgen
data_KCd(NO2)3
_symmetry_space_group_name_H-M   'P 1'
_cell_length_a   5.45178011
_cell_length_b   5.45178011
_cell_length_c   5.45178011
_cell_angle_alpha   90.78219581
_cell_angle_beta   90.78219585
_cell_angle_gamma   90.78219572
_symmetry_Int_Tables_number   1
_chemical_formula_structural   KCd(NO2)3
_chemical_formula_sum   'K1 Cd1 N3 O6'
_cell_volume   161.99158270
_cell_formula_units_Z   1
loop_
 _symmetry_equiv_pos_site_id
 _symmetry_equiv_pos_as_xyz
  1  'x, y, z'
loop_
 _atom_site_type_symbol
 _atom_site_label
 _atom_site_symmetry_multiplicity
 _atom_site_fract_x
 _atom_site_fract_y
 _atom_site_fract_z
 _atom_site_occupancy
  N  N0  1  0.17069276  0.56513538  0.12242482  1
  N  N1  1  0.56513538  0.12242482  0.17069276  1
  N  N2  1  0.12242482  0.17069276  0.56513538  1
  O  O3  1  0.68168958  0.32273614  0.17295421  1
  O  O4  1  0.17295421  0.68168958  0.32273614  1
  O  O5  1  0.92955586  0.15888771  0.69247602  1
  O  O6  1  0.69247602  0.92955586  0.15888771  1
  O  O7  1  0.15888771  0.69247602  0.92955586  1
  O  O8  1  0.32273614  0.17295421  0.68168958  1
  K  K9  1  0.63093024  0.63093024  0.63093024  1
  Cd  Cd10  1  0.11025062  0.11025062  0.11025062  1
