# generated using pymatgen
data_CaReN3
_symmetry_space_group_name_H-M   'P 1'
_cell_length_a   6.28517895
_cell_length_b   7.45025000
_cell_length_c   7.45024991
_cell_angle_alpha   96.05908828
_cell_angle_beta   105.59777643
_cell_angle_gamma   74.40222603
_symmetry_Int_Tables_number   1
_chemical_formula_structural   CaReN3
_chemical_formula_sum   'Ca4 Re4 N12'
_cell_volume   323.43626250
_cell_formula_units_Z   4
loop_
 _symmetry_equiv_pos_site_id
 _symmetry_equiv_pos_as_xyz
  1  'x, y, z'
loop_
 _atom_site_type_symbol
 _atom_site_label
 _atom_site_symmetry_multiplicity
 _atom_site_fract_x
 _atom_site_fract_y
 _atom_site_fract_z
 _atom_site_occupancy
  Ca  Ca0  1  0.75000000  0.91197000  0.91197000  1
  Ca  Ca1  1  0.75000000  0.29464000  0.29464000  1
  Ca  Ca2  1  0.25000000  0.08803000  0.08803000  1
  Ca  Ca3  1  0.25000000  0.70536000  0.70536000  1
  Re  Re4  1  0.27329000  0.62207000  0.20325000  1
  Re  Re5  1  0.22671000  0.20325000  0.62207000  1
  Re  Re6  1  0.72671000  0.37793000  0.79675000  1
  Re  Re7  1  0.77329000  0.79675000  0.37793000  1
  N  N8  1  0.93695000  0.34249000  0.64487000  1
  N  N9  1  0.33757000  0.01097000  0.77363000  1
  N  N10  1  0.16243000  0.77363000  0.01097000  1
  N  N11  1  0.83757000  0.22637000  0.98903000  1
  N  N12  1  0.06305000  0.65751000  0.35513000  1
  N  N13  1  0.82935000  0.87800000  0.61134000  1
  N  N14  1  0.17065000  0.12200000  0.38866000  1
  N  N15  1  0.66243000  0.98903000  0.22637000  1
  N  N16  1  0.32935000  0.38866000  0.12200000  1
  N  N17  1  0.56305000  0.64487000  0.34249000  1
  N  N18  1  0.67065000  0.61134000  0.87800000  1
  N  N19  1  0.43695000  0.35513000  0.65751000  1
