# generated using pymatgen
data_Sr2Ge
_symmetry_space_group_name_H-M   'P 1'
_cell_length_a   5.19632841
_cell_length_b   8.18933091
_cell_length_c   9.67823714
_cell_angle_alpha   90.00000000
_cell_angle_beta   90.00000000
_cell_angle_gamma   90.00000000
_symmetry_Int_Tables_number   1
_chemical_formula_structural   Sr2Ge
_chemical_formula_sum   'Sr8 Ge4'
_cell_volume   411.85208621
_cell_formula_units_Z   4
loop_
 _symmetry_equiv_pos_site_id
 _symmetry_equiv_pos_as_xyz
  1  'x, y, z'
loop_
 _atom_site_type_symbol
 _atom_site_label
 _atom_site_symmetry_multiplicity
 _atom_site_fract_x
 _atom_site_fract_y
 _atom_site_fract_z
 _atom_site_occupancy
  Ge  Ge0  1  0.25000000  0.75220694  0.39802971  1
  Ge  Ge1  1  0.75000000  0.24779306  0.60197029  1
  Ge  Ge2  1  0.25000000  0.25220694  0.10197029  1
  Ge  Ge3  1  0.75000000  0.74779306  0.89802971  1
  Sr  Sr4  1  0.75000000  0.34923520  0.92190235  1
  Sr  Sr5  1  0.25000000  0.65076480  0.07809765  1
  Sr  Sr6  1  0.75000000  0.84923520  0.57809765  1
  Sr  Sr7  1  0.25000000  0.15076480  0.42190235  1
  Sr  Sr8  1  0.25000000  0.01836153  0.82641915  1
  Sr  Sr9  1  0.75000000  0.98163847  0.17358085  1
  Sr  Sr10  1  0.25000000  0.51836153  0.67358085  1
  Sr  Sr11  1  0.75000000  0.48163847  0.32641915  1
