# generated using pymatgen
data_CsSrSiHO4
_symmetry_space_group_name_H-M   'P 1'
_cell_length_a   5.99999760
_cell_length_b   8.00937198
_cell_length_c   6.06102644
_cell_angle_alpha   90.00000000
_cell_angle_beta   119.92693071
_cell_angle_gamma   90.00000000
_symmetry_Int_Tables_number   1
_chemical_formula_structural   CsSrSiHO4
_chemical_formula_sum   'Cs2 Sr2 Si2 H2 O8'
_cell_volume   252.43272135
_cell_formula_units_Z   2
loop_
 _symmetry_equiv_pos_site_id
 _symmetry_equiv_pos_as_xyz
  1  'x, y, z'
loop_
 _atom_site_type_symbol
 _atom_site_label
 _atom_site_symmetry_multiplicity
 _atom_site_fract_x
 _atom_site_fract_y
 _atom_site_fract_z
 _atom_site_occupancy
  Cs  Cs0  1  0.37546780  0.77108488  0.65056834  1
  Cs  Cs1  1  0.62453220  0.27108488  0.34943166  1
  Sr  Sr2  1  0.99638597  0.51647617  0.98611801  1
  Sr  Sr3  1  0.00361403  0.01647617  0.01388199  1
  Si  Si4  1  0.70264591  0.75349904  0.32215916  1
  Si  Si5  1  0.29735409  0.25349904  0.67784084  1
  H  H6  1  0.95128719  0.99354023  0.49204240  1
  H  H7  1  0.04871281  0.49354023  0.50795760  1
  O  O8  1  0.38717291  0.75895139  0.15690596  1
  O  O9  1  0.61282709  0.25895139  0.84309404  1
  O  O10  1  0.83636200  0.75858889  0.14087958  1
  O  O11  1  0.16363800  0.25858889  0.85912042  1
  O  O12  1  0.82340853  0.60153862  0.53355214  1
  O  O13  1  0.17659147  0.10153862  0.46644786  1
  O  O14  1  0.81785501  0.92932079  0.51530502  1
  O  O15  1  0.18214499  0.42932079  0.48469498  1
