# generated using pymatgen
data_SrCaGe
_symmetry_space_group_name_H-M   'P 1'
_cell_length_a   4.96925591
_cell_length_b   8.15600261
_cell_length_c   9.20733746
_cell_angle_alpha   90.00000000
_cell_angle_beta   90.00000000
_cell_angle_gamma   90.00000000
_symmetry_Int_Tables_number   1
_chemical_formula_structural   SrCaGe
_chemical_formula_sum   'Sr4 Ca4 Ge4'
_cell_volume   373.16661223
_cell_formula_units_Z   4
loop_
 _symmetry_equiv_pos_site_id
 _symmetry_equiv_pos_as_xyz
  1  'x, y, z'
loop_
 _atom_site_type_symbol
 _atom_site_label
 _atom_site_symmetry_multiplicity
 _atom_site_fract_x
 _atom_site_fract_y
 _atom_site_fract_z
 _atom_site_occupancy
  Ca  Ca0  1  0.75000000  0.85258579  0.92679187  1
  Ca  Ca1  1  0.25000000  0.14741421  0.07320813  1
  Ca  Ca2  1  0.75000000  0.35258579  0.57320813  1
  Ca  Ca3  1  0.25000000  0.64741421  0.42679187  1
  Ge  Ge4  1  0.75000000  0.23320113  0.89351883  1
  Ge  Ge5  1  0.25000000  0.26679887  0.39351883  1
  Ge  Ge6  1  0.25000000  0.76679887  0.10648117  1
  Ge  Ge7  1  0.75000000  0.73320113  0.60648117  1
  Sr  Sr8  1  0.25000000  0.52197427  0.82173249  1
  Sr  Sr9  1  0.25000000  0.02197427  0.67826751  1
  Sr  Sr10  1  0.75000000  0.97802573  0.32173249  1
  Sr  Sr11  1  0.75000000  0.47802573  0.17826751  1
