# generated using pymatgen
data_Ba(As3Pt2)2
_symmetry_space_group_name_H-M   'P 1'
_cell_length_a   6.12437394
_cell_length_b   6.12437394
_cell_length_c   12.18060137
_cell_angle_alpha   89.46255231
_cell_angle_beta   89.46255231
_cell_angle_gamma   87.43635196
_symmetry_Int_Tables_number   1
_chemical_formula_structural   Ba(As3Pt2)2
_chemical_formula_sum   'Ba2 As12 Pt8'
_cell_volume   456.37376381
_cell_formula_units_Z   2
loop_
 _symmetry_equiv_pos_site_id
 _symmetry_equiv_pos_as_xyz
  1  'x, y, z'
loop_
 _atom_site_type_symbol
 _atom_site_label
 _atom_site_symmetry_multiplicity
 _atom_site_fract_x
 _atom_site_fract_y
 _atom_site_fract_z
 _atom_site_occupancy
  As  As0  1  0.13779649  0.09218589  0.30865652  1
  As  As1  1  0.90781411  0.86220351  0.19134348  1
  As  As2  1  0.86220351  0.90781411  0.69134348  1
  As  As3  1  0.09218589  0.13779649  0.80865652  1
  As  As4  1  0.87646319  0.62345520  0.94483848  1
  As  As5  1  0.37654480  0.12353681  0.55516152  1
  As  As6  1  0.12353681  0.37654480  0.05516152  1
  As  As7  1  0.62345520  0.87646319  0.44483848  1
  As  As8  1  0.38522410  0.87708065  0.05451168  1
  As  As9  1  0.12291935  0.61477590  0.44548832  1
  As  As10  1  0.87708065  0.38522410  0.55451168  1
  As  As11  1  0.61477590  0.12291935  0.94548832  1
  Ba  Ba12  1  0.39426155  0.60573845  0.75000000  1
  Ba  Ba13  1  0.60573845  0.39426155  0.25000000  1
  Pt  Pt14  1  0.91714437  0.50728227  0.74980441  1
  Pt  Pt15  1  0.49271773  0.08285563  0.75019559  1
  Pt  Pt16  1  0.50000000  0.50000000  0.50000000  1
  Pt  Pt17  1  0.50000000  0.50000000  0.00000000  1
  Pt  Pt18  1  0.00000000  0.00000000  0.50000000  1
  Pt  Pt19  1  0.00000000  0.00000000  0.00000000  1
  Pt  Pt20  1  0.50728227  0.91714437  0.24980441  1
  Pt  Pt21  1  0.08285563  0.49271773  0.25019559  1
