# generated using pymatgen
data_SrGe2
_symmetry_space_group_name_H-M   'P 1'
_cell_length_a   6.59855330
_cell_length_b   8.81062791
_cell_length_c   11.26927965
_cell_angle_alpha   90.00000000
_cell_angle_beta   90.00000000
_cell_angle_gamma   90.00000000
_symmetry_Int_Tables_number   1
_chemical_formula_structural   SrGe2
_chemical_formula_sum   'Sr8 Ge16'
_cell_volume   655.16659473
_cell_formula_units_Z   8
loop_
 _symmetry_equiv_pos_site_id
 _symmetry_equiv_pos_as_xyz
  1  'x, y, z'
loop_
 _atom_site_type_symbol
 _atom_site_label
 _atom_site_symmetry_multiplicity
 _atom_site_fract_x
 _atom_site_fract_y
 _atom_site_fract_z
 _atom_site_occupancy
  Sr  Sr0  1  0.75000000  0.48485909  0.19319665  1
  Sr  Sr1  1  0.75000000  0.98485909  0.30680335  1
  Sr  Sr2  1  0.25000000  0.51514091  0.80680335  1
  Sr  Sr3  1  0.25000000  0.01514091  0.69319665  1
  Sr  Sr4  1  0.75000000  0.65643745  0.59377831  1
  Sr  Sr5  1  0.75000000  0.15643745  0.90622169  1
  Sr  Sr6  1  0.25000000  0.34356255  0.40622169  1
  Sr  Sr7  1  0.25000000  0.84356255  0.09377831  1
  Ge  Ge8  1  0.75000000  0.30680891  0.45262077  1
  Ge  Ge9  1  0.75000000  0.80680891  0.04737923  1
  Ge  Ge10  1  0.25000000  0.69319109  0.54737923  1
  Ge  Ge11  1  0.25000000  0.19319109  0.95262077  1
  Ge  Ge12  1  0.75000000  0.06582444  0.59214509  1
  Ge  Ge13  1  0.75000000  0.56582444  0.90785491  1
  Ge  Ge14  1  0.25000000  0.93417556  0.40785491  1
  Ge  Ge15  1  0.25000000  0.43417556  0.09214509  1
  Ge  Ge16  1  0.94490432  0.31003614  0.65072174  1
  Ge  Ge17  1  0.55509568  0.81003614  0.84927826  1
  Ge  Ge18  1  0.44490432  0.68996386  0.34927826  1
  Ge  Ge19  1  0.05509568  0.18996386  0.15072174  1
  Ge  Ge20  1  0.05509568  0.68996386  0.34927826  1
  Ge  Ge21  1  0.44490432  0.18996386  0.15072174  1
  Ge  Ge22  1  0.55509568  0.31003614  0.65072174  1
  Ge  Ge23  1  0.94490432  0.81003614  0.84927826  1
