# generated using pymatgen
data_Sb2Ir
_symmetry_space_group_name_H-M   'P 1'
_cell_length_a   6.63961317
_cell_length_b   6.69358831
_cell_length_c   6.79475242
_cell_angle_alpha   114.92775054
_cell_angle_beta   90.00000000
_cell_angle_gamma   90.00000000
_symmetry_Int_Tables_number   1
_chemical_formula_structural   Sb2Ir
_chemical_formula_sum   'Sb8 Ir4'
_cell_volume   273.84579300
_cell_formula_units_Z   4
loop_
 _symmetry_equiv_pos_site_id
 _symmetry_equiv_pos_as_xyz
  1  'x, y, z'
loop_
 _atom_site_type_symbol
 _atom_site_label
 _atom_site_symmetry_multiplicity
 _atom_site_fract_x
 _atom_site_fract_y
 _atom_site_fract_z
 _atom_site_occupancy
  Sb  Sb0  1  0.13497061  0.85092717  0.12116107  1
  Sb  Sb1  1  0.63497061  0.14907283  0.37883893  1
  Sb  Sb2  1  0.86502939  0.14907283  0.87883893  1
  Sb  Sb3  1  0.36502939  0.85092717  0.62116107  1
  Sb  Sb4  1  0.63744567  0.65539396  0.82129793  1
  Sb  Sb5  1  0.13744567  0.34460604  0.67870207  1
  Sb  Sb6  1  0.36255433  0.34460604  0.17870207  1
  Sb  Sb7  1  0.86255433  0.65539396  0.32129793  1
  Ir  Ir8  1  0.49901828  0.72830748  0.20892961  1
  Ir  Ir9  1  0.99901828  0.27169252  0.29107039  1
  Ir  Ir10  1  0.50098172  0.27169252  0.79107039  1
  Ir  Ir11  1  0.00098172  0.72830748  0.70892961  1
