# generated using pymatgen
data_Li8GeO6
_symmetry_space_group_name_H-M   'P 1'
_cell_length_a   5.56608505
_cell_length_b   5.56608505
_cell_length_c   10.85079119
_cell_angle_alpha   90.00000000
_cell_angle_beta   90.00000000
_cell_angle_gamma   120.00000006
_symmetry_Int_Tables_number   1
_chemical_formula_structural   Li8GeO6
_chemical_formula_sum   'Li16 Ge2 O12'
_cell_volume   291.13318642
_cell_formula_units_Z   2
loop_
 _symmetry_equiv_pos_site_id
 _symmetry_equiv_pos_as_xyz
  1  'x, y, z'
loop_
 _atom_site_type_symbol
 _atom_site_label
 _atom_site_symmetry_multiplicity
 _atom_site_fract_x
 _atom_site_fract_y
 _atom_site_fract_z
 _atom_site_occupancy
  Li  Li0  1  0.00000000  0.31131648  0.27013290  1
  Li  Li1  1  0.68868352  0.00000000  0.77013290  1
  Li  Li2  1  0.33333333  0.66666667  0.41061554  1
  Li  Li3  1  0.66666667  0.33333333  0.91061554  1
  Li  Li4  1  0.33333333  0.66666667  0.91061554  1
  Li  Li5  1  0.66666667  0.33333333  0.41061554  1
  Li  Li6  1  0.39783201  0.00000000  0.63024823  1
  Li  Li7  1  0.39783201  0.39783201  0.13024823  1
  Li  Li8  1  0.00000000  0.60216799  0.13024823  1
  Li  Li9  1  0.00000000  0.39783201  0.63024823  1
  Li  Li10  1  0.60216799  0.60216799  0.63024823  1
  Li  Li11  1  0.60216799  0.00000000  0.13024823  1
  Li  Li12  1  0.31131648  0.00000000  0.27013290  1
  Li  Li13  1  0.68868352  0.68868352  0.27013290  1
  Li  Li14  1  0.00000000  0.68868352  0.77013290  1
  Li  Li15  1  0.31131648  0.31131648  0.77013290  1
  O  O16  1  0.00000000  0.30495588  0.45255844  1
  O  O17  1  0.69504412  0.69504412  0.45255844  1
  O  O18  1  0.00000000  0.00000000  0.16712374  1
  O  O19  1  0.00000000  0.00000000  0.66712374  1
  O  O20  1  0.33333333  0.66666667  0.21904062  1
  O  O21  1  0.66666667  0.33333333  0.71904062  1
  O  O22  1  0.33333333  0.66666667  0.71904062  1
  O  O23  1  0.69504412  0.00000000  0.95255844  1
  O  O24  1  0.30495588  0.00000000  0.45255844  1
  O  O25  1  0.30495588  0.30495588  0.95255844  1
  O  O26  1  0.00000000  0.69504412  0.95255844  1
  O  O27  1  0.66666667  0.33333333  0.21904062  1
  Ge  Ge28  1  0.00000000  0.00000000  0.49964524  1
  Ge  Ge29  1  0.00000000  0.00000000  0.99964524  1
