# generated using pymatgen
data_Zn3P2
_symmetry_space_group_name_H-M   'P 1'
_cell_length_a   8.12069138
_cell_length_b   8.12069138
_cell_length_c   11.46658978
_cell_angle_alpha   90.00000000
_cell_angle_beta   90.00000000
_cell_angle_gamma   90.00000000
_symmetry_Int_Tables_number   1
_chemical_formula_structural   Zn3P2
_chemical_formula_sum   'Zn24 P16'
_cell_volume   756.17146967
_cell_formula_units_Z   8
loop_
 _symmetry_equiv_pos_site_id
 _symmetry_equiv_pos_as_xyz
  1  'x, y, z'
loop_
 _atom_site_type_symbol
 _atom_site_label
 _atom_site_symmetry_multiplicity
 _atom_site_fract_x
 _atom_site_fract_y
 _atom_site_fract_z
 _atom_site_occupancy
  P  P0  1  0.25000000  0.75000000  0.99610582  1
  P  P1  1  0.75000000  0.25000000  0.49610582  1
  P  P2  1  0.75000000  0.25000000  0.00389418  1
  P  P3  1  0.25000000  0.75000000  0.50389418  1
  P  P4  1  0.25000000  0.25000000  0.99580136  1
  P  P5  1  0.25000000  0.25000000  0.49580136  1
  P  P6  1  0.75000000  0.75000000  0.00419864  1
  P  P7  1  0.75000000  0.75000000  0.50419864  1
  P  P8  1  0.50439070  0.00439070  0.75000000  1
  P  P9  1  0.49560930  0.50439070  0.25000000  1
  P  P10  1  0.00439070  0.99560930  0.25000000  1
  P  P11  1  0.99560930  0.49560930  0.75000000  1
  P  P12  1  0.49560930  0.99560930  0.25000000  1
  P  P13  1  0.50439070  0.49560930  0.75000000  1
  P  P14  1  0.99560930  0.00439070  0.75000000  1
  P  P15  1  0.00439070  0.50439070  0.25000000  1
  Zn  Zn16  1  0.25000000  0.96708177  0.85624912  1
  Zn  Zn17  1  0.53291823  0.25000000  0.35624912  1
  Zn  Zn18  1  0.96708177  0.25000000  0.35624912  1
  Zn  Zn19  1  0.75000000  0.03291823  0.14375088  1
  Zn  Zn20  1  0.75000000  0.46708177  0.14375088  1
  Zn  Zn21  1  0.25000000  0.53291823  0.85624912  1
  Zn  Zn22  1  0.46708177  0.75000000  0.64375088  1
  Zn  Zn23  1  0.03291823  0.75000000  0.64375088  1
  Zn  Zn24  1  0.25000000  0.03304286  0.13516952  1
  Zn  Zn25  1  0.46695714  0.25000000  0.63516952  1
  Zn  Zn26  1  0.03304286  0.25000000  0.63516952  1
  Zn  Zn27  1  0.75000000  0.96695714  0.86483048  1
  Zn  Zn28  1  0.75000000  0.53304286  0.86483048  1
  Zn  Zn29  1  0.25000000  0.46695714  0.13516952  1
  Zn  Zn30  1  0.53304286  0.75000000  0.36483048  1
  Zn  Zn31  1  0.96695714  0.75000000  0.36483048  1
  Zn  Zn32  1  0.25000000  0.99679485  0.39815485  1
  Zn  Zn33  1  0.50320515  0.25000000  0.89815485  1
  Zn  Zn34  1  0.99679485  0.25000000  0.89815485  1
  Zn  Zn35  1  0.75000000  0.00320515  0.60184515  1
  Zn  Zn36  1  0.75000000  0.49679485  0.60184515  1
  Zn  Zn37  1  0.25000000  0.50320515  0.39815485  1
  Zn  Zn38  1  0.49679485  0.75000000  0.10184515  1
  Zn  Zn39  1  0.00320515  0.75000000  0.10184515  1
