# generated using pymatgen
data_RbAs
_symmetry_space_group_name_H-M   'P 1'
_cell_length_a   6.74255270
_cell_length_b   7.08345284
_cell_length_c   12.27014134
_cell_angle_alpha   90.00000000
_cell_angle_beta   90.00000000
_cell_angle_gamma   90.00000000
_symmetry_Int_Tables_number   1
_chemical_formula_structural   RbAs
_chemical_formula_sum   'Rb8 As8'
_cell_volume   586.02874894
_cell_formula_units_Z   8
loop_
 _symmetry_equiv_pos_site_id
 _symmetry_equiv_pos_as_xyz
  1  'x, y, z'
loop_
 _atom_site_type_symbol
 _atom_site_label
 _atom_site_symmetry_multiplicity
 _atom_site_fract_x
 _atom_site_fract_y
 _atom_site_fract_z
 _atom_site_occupancy
  As  As0  1  0.16938365  0.18464318  0.10568158  1
  As  As1  1  0.66938365  0.31535682  0.89431842  1
  As  As2  1  0.83061635  0.68464318  0.39431842  1
  As  As3  1  0.33061635  0.81535682  0.60568158  1
  As  As4  1  0.40978150  0.42542436  0.03100917  1
  As  As5  1  0.90978150  0.07457564  0.96899083  1
  As  As6  1  0.59021850  0.92542436  0.46899083  1
  As  As7  1  0.09021850  0.57457564  0.53100917  1
  Rb  Rb8  1  0.09893915  0.10905667  0.41805028  1
  Rb  Rb9  1  0.59893915  0.39094333  0.58194972  1
  Rb  Rb10  1  0.90106085  0.60905667  0.08194972  1
  Rb  Rb11  1  0.40106085  0.89094333  0.91805028  1
  Rb  Rb12  1  0.66771284  0.14601803  0.21258329  1
  Rb  Rb13  1  0.16771284  0.35398197  0.78741671  1
  Rb  Rb14  1  0.33228716  0.64601803  0.28741671  1
  Rb  Rb15  1  0.83228716  0.85398197  0.71258329  1
