# generated using pymatgen
data_LiMnVO4
_symmetry_space_group_name_H-M   'P 1'
_cell_length_a   6.08756875
_cell_length_b   6.08756875
_cell_length_c   8.34923216
_cell_angle_alpha   90.00000000
_cell_angle_beta   90.00000000
_cell_angle_gamma   90.00000000
_symmetry_Int_Tables_number   1
_chemical_formula_structural   LiMnVO4
_chemical_formula_sum   'Li4 Mn4 V4 O16'
_cell_volume   309.40996394
_cell_formula_units_Z   4
loop_
 _symmetry_equiv_pos_site_id
 _symmetry_equiv_pos_as_xyz
  1  'x, y, z'
loop_
 _atom_site_type_symbol
 _atom_site_label
 _atom_site_symmetry_multiplicity
 _atom_site_fract_x
 _atom_site_fract_y
 _atom_site_fract_z
 _atom_site_occupancy
  Li  Li0  1  0.00000000  0.24623602  0.00000000  1
  Li  Li1  1  0.00000000  0.75376398  0.50000000  1
  Li  Li2  1  0.24623602  0.00000000  0.25000000  1
  Li  Li3  1  0.75376398  0.00000000  0.75000000  1
  Mn  Mn4  1  0.25551928  0.25551928  0.62500000  1
  Mn  Mn5  1  0.25551928  0.74448072  0.87500000  1
  Mn  Mn6  1  0.74448072  0.25551928  0.37500000  1
  Mn  Mn7  1  0.74448072  0.74448072  0.12500000  1
  V  V8  1  0.22403111  0.50000000  0.25000000  1
  V  V9  1  0.50000000  0.22403111  0.00000000  1
  V  V10  1  0.50000000  0.77596889  0.50000000  1
  V  V11  1  0.77596889  0.50000000  0.75000000  1
  O  O12  1  0.03904671  0.27335096  0.25760135  1
  O  O13  1  0.03904671  0.72664904  0.24239865  1
  O  O14  1  0.27335096  0.03904671  0.99239865  1
  O  O15  1  0.27335096  0.96095329  0.50760135  1
  O  O16  1  0.27095254  0.48298946  0.02548793  1
  O  O17  1  0.27095254  0.51701054  0.47451207  1
  O  O18  1  0.48298946  0.27095254  0.22451207  1
  O  O19  1  0.48298946  0.72904746  0.27548793  1
  O  O20  1  0.51701054  0.27095254  0.77548793  1
  O  O21  1  0.51701054  0.72904746  0.72451207  1
  O  O22  1  0.72904746  0.51701054  0.52548793  1
  O  O23  1  0.72904746  0.48298946  0.97451207  1
  O  O24  1  0.72664904  0.03904671  0.00760135  1
  O  O25  1  0.72664904  0.96095329  0.49239865  1
  O  O26  1  0.96095329  0.27335096  0.74239865  1
  O  O27  1  0.96095329  0.72664904  0.75760135  1
