# generated using pymatgen
data_Li2Mn3F8
_symmetry_space_group_name_H-M   'P 1'
_cell_length_a   8.84197268
_cell_length_b   8.84197268
_cell_length_c   8.84197268
_cell_angle_alpha   90.00000000
_cell_angle_beta   90.00000000
_cell_angle_gamma   90.00000000
_symmetry_Int_Tables_number   1
_chemical_formula_structural   Li2Mn3F8
_chemical_formula_sum   'Li8 Mn12 F32'
_cell_volume   691.26967600
_cell_formula_units_Z   4
loop_
 _symmetry_equiv_pos_site_id
 _symmetry_equiv_pos_as_xyz
  1  'x, y, z'
loop_
 _atom_site_type_symbol
 _atom_site_label
 _atom_site_symmetry_multiplicity
 _atom_site_fract_x
 _atom_site_fract_y
 _atom_site_fract_z
 _atom_site_occupancy
  Li  Li0  1  0.98571599  0.98571599  0.98571599  1
  Li  Li1  1  0.01428401  0.48571599  0.51428401  1
  Li  Li2  1  0.26428401  0.26428401  0.26428401  1
  Li  Li3  1  0.23571599  0.73571599  0.76428401  1
  Li  Li4  1  0.51428401  0.01428401  0.48571599  1
  Li  Li5  1  0.48571599  0.51428401  0.01428401  1
  Li  Li6  1  0.76428401  0.23571599  0.73571599  1
  Li  Li7  1  0.73571599  0.76428401  0.23571599  1
  Mn  Mn8  1  0.14999099  0.10000901  0.62500000  1
  Mn  Mn9  1  0.10000901  0.62500000  0.14999099  1
  Mn  Mn10  1  0.12500000  0.35000901  0.89999099  1
  Mn  Mn11  1  0.39999099  0.37500000  0.64999099  1
  Mn  Mn12  1  0.37500000  0.64999099  0.39999099  1
  Mn  Mn13  1  0.35000901  0.89999099  0.12500000  1
  Mn  Mn14  1  0.62500000  0.14999099  0.10000901  1
  Mn  Mn15  1  0.64999099  0.39999099  0.37500000  1
  Mn  Mn16  1  0.60000901  0.87500000  0.85000901  1
  Mn  Mn17  1  0.89999099  0.12500000  0.35000901  1
  Mn  Mn18  1  0.85000901  0.60000901  0.87500000  1
  Mn  Mn19  1  0.87500000  0.85000901  0.60000901  1
  F  F20  1  0.13269579  0.14125306  0.38567629  1
  F  F21  1  0.14125306  0.38567629  0.13269579  1
  F  F22  1  0.10874694  0.11730421  0.86432371  1
  F  F23  1  0.11730421  0.86432371  0.10874694  1
  F  F24  1  0.14708820  0.35291180  0.64708820  1
  F  F25  1  0.13567629  0.60874694  0.38269579  1
  F  F26  1  0.10291180  0.60291180  0.89708820  1
  F  F27  1  0.11432371  0.86730421  0.64125306  1
  F  F28  1  0.38567629  0.13269579  0.14125306  1
  F  F29  1  0.38269579  0.13567629  0.60874694  1
  F  F30  1  0.39708820  0.39708820  0.39708820  1
  F  F31  1  0.36432371  0.39125306  0.88269579  1
  F  F32  1  0.35291180  0.64708820  0.14708820  1
  F  F33  1  0.39125306  0.88269579  0.36432371  1
  F  F34  1  0.35874694  0.61432371  0.63269579  1
  F  F35  1  0.36730421  0.85874694  0.88567629  1
  F  F36  1  0.64708820  0.14708820  0.35291180  1
  F  F37  1  0.60874694  0.38269579  0.13567629  1
  F  F38  1  0.63269579  0.35874694  0.61432371  1
  F  F39  1  0.61432371  0.63269579  0.35874694  1
  F  F40  1  0.64125306  0.11432371  0.86730421  1
  F  F41  1  0.61730421  0.63567629  0.89125306  1
  F  F42  1  0.60291180  0.89708820  0.10291180  1
  F  F43  1  0.63567629  0.89125306  0.61730421  1
  F  F44  1  0.86432371  0.10874694  0.11730421  1
  F  F45  1  0.89708820  0.10291180  0.60291180  1
  F  F46  1  0.88269579  0.36432371  0.39125306  1
  F  F47  1  0.86730421  0.64125306  0.11432371  1
  F  F48  1  0.89125306  0.61730421  0.63567629  1
  F  F49  1  0.88567629  0.36730421  0.85874694  1
  F  F50  1  0.85874694  0.88567629  0.36730421  1
  F  F51  1  0.85291180  0.85291180  0.85291180  1
