# generated using pymatgen
data_Ge2N2O
_symmetry_space_group_name_H-M   'P 1'
_cell_length_a   5.46876007
_cell_length_b   5.61919144
_cell_length_c   10.47608361
_cell_angle_alpha   90.27603479
_cell_angle_beta   104.89705295
_cell_angle_gamma   62.54038413
_symmetry_Int_Tables_number   1
_chemical_formula_structural   Ge2N2O
_chemical_formula_sum   'Ge8 N8 O4'
_cell_volume   273.62029435
_cell_formula_units_Z   4
loop_
 _symmetry_equiv_pos_site_id
 _symmetry_equiv_pos_as_xyz
  1  'x, y, z'
loop_
 _atom_site_type_symbol
 _atom_site_label
 _atom_site_symmetry_multiplicity
 _atom_site_fract_x
 _atom_site_fract_y
 _atom_site_fract_z
 _atom_site_occupancy
  Ge  Ge0  1  0.46005843  0.99191081  0.06581646  1
  Ge  Ge1  1  0.24674382  0.90039962  0.31155482  1
  Ge  Ge2  1  0.62677162  0.74066443  0.81881813  1
  Ge  Ge3  1  0.13771438  0.64119220  0.06706634  1
  Ge  Ge4  1  0.46014960  0.48624524  0.56837939  1
  Ge  Ge5  1  0.28014044  0.39363811  0.81381695  1
  Ge  Ge6  1  0.64642593  0.25762525  0.31500630  1
  Ge  Ge7  1  0.13937865  0.13516705  0.56665957  1
  N  N8  1  0.35118970  0.83292184  0.49469137  1
  N  N9  1  0.75004417  0.74237244  0.00249192  1
  N  N10  1  0.31123273  0.57676045  0.24715428  1
  N  N11  1  0.51956981  0.48496987  0.75275085  1
  N  N12  1  0.33657287  0.33799279  0.99370237  1
  N  N13  1  0.90476497  0.17157920  0.22671678  1
  N  N14  1  0.74895324  0.23829654  0.50093475  1
  N  N15  1  0.31207144  0.07806488  0.74724402  1
  O  O16  1  0.50422124  0.99292321  0.24886968  1
  O  O17  1  0.92051093  0.66963406  0.75133292  1
  O  O18  1  0.16620839  0.41712412  0.50543099  1
  O  O19  1  0.17687764  0.91131590  0.00156210  1
