# generated using pymatgen
data_LiIO3
_symmetry_space_group_name_H-M   'P 1'
_cell_length_a   5.54001892
_cell_length_b   5.54001014
_cell_length_c   5.28296465
_cell_angle_alpha   89.99995599
_cell_angle_beta   89.99985356
_cell_angle_gamma   120.00015207
_symmetry_Int_Tables_number   1
_chemical_formula_structural   LiIO3
_chemical_formula_sum   'Li2 I2 O6'
_cell_volume   140.42016491
_cell_formula_units_Z   2
loop_
 _symmetry_equiv_pos_site_id
 _symmetry_equiv_pos_as_xyz
  1  'x, y, z'
loop_
 _atom_site_type_symbol
 _atom_site_label
 _atom_site_symmetry_multiplicity
 _atom_site_fract_x
 _atom_site_fract_y
 _atom_site_fract_z
 _atom_site_occupancy
  O  O0  1  0.74924117  0.65958864  0.33817700  1
  O  O1  1  0.25075764  0.34040892  0.83817573  1
  Li  Li2  1  0.99999873  0.99999845  0.07764329  1
  O  O3  1  0.08965060  0.74924103  0.83817422  1
  O  O4  1  0.34041008  0.08965278  0.33817574  1
  I  I5  1  0.66666856  0.33333598  0.49852724  1
  Li  Li6  1  0.00000123  0.00000164  0.57764335  1
  O  O7  1  0.65958992  0.91034689  0.83817606  1
  I  I8  1  0.33333572  0.66666694  -0.00146886  1
  O  O9  1  0.91034635  0.25075873  0.33817623  1
