# generated using pymatgen
data_AlHO2
_symmetry_space_group_name_H-M   'P 1'
_cell_length_a   4.91473390
_cell_length_b   8.50643139
_cell_length_c   2.88689991
_cell_angle_alpha   90.00000000
_cell_angle_beta   90.00000000
_cell_angle_gamma   90.00000000
_symmetry_Int_Tables_number   1
_chemical_formula_structural   AlHO2
_chemical_formula_sum   'Al4 H4 O8'
_cell_volume   120.69218203
_cell_formula_units_Z   4
loop_
 _symmetry_equiv_pos_site_id
 _symmetry_equiv_pos_as_xyz
  1  'x, y, z'
loop_
 _atom_site_type_symbol
 _atom_site_label
 _atom_site_symmetry_multiplicity
 _atom_site_fract_x
 _atom_site_fract_y
 _atom_site_fract_z
 _atom_site_occupancy
  Al  Al0  1  0.39613640  0.64942334  0.25000000  1
  Al  Al1  1  0.10386360  0.14942334  0.25000000  1
  Al  Al2  1  0.60386360  0.35057666  0.75000000  1
  Al  Al3  1  0.89613640  0.85057666  0.75000000  1
  H  H4  1  0.37060143  0.93114981  0.75000000  1
  H  H5  1  0.12939857  0.43114981  0.75000000  1
  H  H6  1  0.62939857  0.06885019  0.25000000  1
  H  H7  1  0.87060143  0.56885019  0.25000000  1
  O  O8  1  0.20832086  0.00243138  0.75000000  1
  O  O9  1  0.29167914  0.50243138  0.75000000  1
  O  O10  1  0.79167914  0.99756862  0.25000000  1
  O  O11  1  0.70832086  0.49756862  0.25000000  1
  O  O12  1  0.95015356  0.26019458  0.75000000  1
  O  O13  1  0.54984644  0.76019458  0.75000000  1
  O  O14  1  0.04984644  0.73980542  0.25000000  1
  O  O15  1  0.45015356  0.23980542  0.25000000  1
