# generated using pymatgen
data_Be4Si2H2O9
_symmetry_space_group_name_H-M   'P 1'
_cell_length_a   8.86139546
_cell_length_b   8.86139546
_cell_length_c   4.61009657
_cell_angle_alpha   90.00000000
_cell_angle_beta   90.00000000
_cell_angle_gamma   59.42808078
_symmetry_Int_Tables_number   1
_chemical_formula_structural   Be4Si2H2O9
_chemical_formula_sum   'Be8 Si4 H4 O18'
_cell_volume   311.68297164
_cell_formula_units_Z   2
loop_
 _symmetry_equiv_pos_site_id
 _symmetry_equiv_pos_as_xyz
  1  'x, y, z'
loop_
 _atom_site_type_symbol
 _atom_site_label
 _atom_site_symmetry_multiplicity
 _atom_site_fract_x
 _atom_site_fract_y
 _atom_site_fract_z
 _atom_site_occupancy
  Be  Be0  1  0.87976240  0.22496086  0.00513439  1
  Be  Be1  1  0.22496086  0.87976240  0.00513439  1
  Be  Be2  1  0.12023760  0.77503914  0.50513439  1
  Be  Be3  1  0.77503914  0.12023760  0.50513439  1
  Be  Be4  1  0.89413249  0.54539837  0.00184786  1
  Be  Be5  1  0.54539837  0.89413249  0.00184786  1
  Be  Be6  1  0.10586751  0.45460163  0.50184786  1
  Be  Be7  1  0.45460163  0.10586751  0.50184786  1
  Si  Si8  1  0.21056933  0.56084468  0.00216489  1
  Si  Si9  1  0.56084468  0.21056933  0.00216489  1
  Si  Si10  1  0.78943067  0.43915532  0.50216489  1
  Si  Si11  1  0.43915532  0.78943067  0.50216489  1
  H  H12  1  0.86318402  0.86318402  0.31869034  1
  H  H13  1  0.13681598  0.13681598  0.81869034  1
  H  H14  1  0.80187795  0.80187795  0.80807718  1
  H  H15  1  0.19812205  0.19812205  0.30807718  1
  O  O16  1  0.16449771  0.58672396  0.35040069  1
  O  O17  1  0.58672396  0.16449771  0.35040069  1
  O  O18  1  0.83550229  0.41327604  0.85040069  1
  O  O19  1  0.41327604  0.83550229  0.85040069  1
  O  O20  1  0.16680565  0.74770743  0.85425824  1
  O  O21  1  0.74770743  0.16680565  0.85425824  1
  O  O22  1  0.83319435  0.25229257  0.35425824  1
  O  O23  1  0.25229257  0.83319435  0.35425824  1
  O  O24  1  0.08258729  0.49853104  0.85060171  1
  O  O25  1  0.49853104  0.08258729  0.85060171  1
  O  O26  1  0.91741271  0.50146896  0.35060171  1
  O  O27  1  0.50146896  0.91741271  0.35060171  1
  O  O28  1  0.58437184  0.58437184  0.43985368  1
  O  O29  1  0.41562816  0.41562816  0.93985368  1
  O  O30  1  0.91311467  0.91311467  0.44957468  1
  O  O31  1  0.08688533  0.08688533  0.94957468  1
  O  O32  1  0.75338732  0.75338732  0.94278857  1
  O  O33  1  0.24661268  0.24661268  0.44278857  1
