# generated using pymatgen
data_BaAl4S7
_symmetry_space_group_name_H-M   'P 1'
_cell_length_a   5.95849762
_cell_length_b   6.30231258
_cell_length_c   15.04361859
_cell_angle_alpha   90.00000000
_cell_angle_beta   90.00000000
_cell_angle_gamma   90.00000000
_symmetry_Int_Tables_number   1
_chemical_formula_structural   BaAl4S7
_chemical_formula_sum   'Ba2 Al8 S14'
_cell_volume   564.92269664
_cell_formula_units_Z   2
loop_
 _symmetry_equiv_pos_site_id
 _symmetry_equiv_pos_as_xyz
  1  'x, y, z'
loop_
 _atom_site_type_symbol
 _atom_site_label
 _atom_site_symmetry_multiplicity
 _atom_site_fract_x
 _atom_site_fract_y
 _atom_site_fract_z
 _atom_site_occupancy
  Al  Al0  1  0.08930136  0.83003297  0.61953384  1
  Al  Al1  1  0.07155600  0.31623883  0.25248838  1
  Al  Al2  1  0.57155600  0.68376117  0.24751162  1
  Al  Al3  1  0.58930136  0.16996703  0.88046616  1
  Al  Al4  1  0.58930136  0.16996703  0.11953384  1
  Al  Al5  1  0.08930136  0.83003297  0.38046616  1
  Al  Al6  1  0.07155600  0.31623883  0.74751162  1
  Al  Al7  1  0.57155600  0.68376117  0.75248838  1
  S  S8  1  0.97562941  0.64565452  0.50000000  1
  S  S9  1  0.47562941  0.35434548  0.00000000  1
  S  S10  1  0.96682176  0.19677122  0.88031474  1
  S  S11  1  0.46682176  0.80322878  0.61968526  1
  S  S12  1  0.46682176  0.80322878  0.38031474  1
  S  S13  1  0.96682176  0.19677122  0.11968526  1
  S  S14  1  0.98656067  0.17301786  0.61630747  1
  S  S15  1  0.48656067  0.82698214  0.88369253  1
  S  S16  1  0.48656067  0.82698214  0.11630747  1
  S  S17  1  0.98656067  0.17301786  0.38369253  1
  S  S18  1  0.96140876  0.66778876  0.74843082  1
  S  S19  1  0.46140876  0.33221124  0.75156918  1
  S  S20  1  0.46140876  0.33221124  0.24843082  1
  S  S21  1  0.96140876  0.66778876  0.25156918  1
  Ba  Ba22  1  0.47987350  0.35305517  0.50000000  1
  Ba  Ba23  1  0.97987350  0.64694483  0.00000000  1
