# generated using pymatgen
data_NbOF3
_symmetry_space_group_name_H-M   'P 1'
_cell_length_a   5.58613344
_cell_length_b   5.51524807
_cell_length_c   9.63139387
_cell_angle_alpha   90.00000000
_cell_angle_beta   90.00000000
_cell_angle_gamma   90.00000000
_symmetry_Int_Tables_number   1
_chemical_formula_structural   NbOF3
_chemical_formula_sum   'Nb4 O4 F12'
_cell_volume   296.73276304
_cell_formula_units_Z   4
loop_
 _symmetry_equiv_pos_site_id
 _symmetry_equiv_pos_as_xyz
  1  'x, y, z'
loop_
 _atom_site_type_symbol
 _atom_site_label
 _atom_site_symmetry_multiplicity
 _atom_site_fract_x
 _atom_site_fract_y
 _atom_site_fract_z
 _atom_site_occupancy
  Nb  Nb0  1  0.16965221  0.12464338  0.11096327  1
  Nb  Nb1  1  0.33034779  0.87535662  0.61096327  1
  Nb  Nb2  1  0.66965221  0.37535662  0.88903673  1
  Nb  Nb3  1  0.83034779  0.62464338  0.38903673  1
  O  O4  1  0.14650096  0.69724893  0.49165655  1
  O  O5  1  0.35349904  0.30275107  0.99165655  1
  O  O6  1  0.64650096  0.80275107  0.50834345  1
  O  O7  1  0.85349904  0.19724893  0.00834345  1
  F  F8  1  0.05406878  0.38726263  0.24383587  1
  F  F9  1  0.08316775  0.94958215  0.73986274  1
  F  F10  1  0.30109246  0.17782215  0.51949501  1
  F  F11  1  0.19890754  0.82217785  0.01949501  1
  F  F12  1  0.41683225  0.05041785  0.23986274  1
  F  F13  1  0.44593122  0.61273737  0.74383587  1
  F  F14  1  0.55406878  0.11273737  0.75616413  1
  F  F15  1  0.58316775  0.55041785  0.26013726  1
  F  F16  1  0.80109246  0.32217785  0.48050499  1
  F  F17  1  0.69890754  0.67782215  0.98050499  1
  F  F18  1  0.91683225  0.44958215  0.76013726  1
  F  F19  1  0.94593122  0.88726263  0.25616413  1
