# generated using pymatgen
data_SiSbPt
_symmetry_space_group_name_H-M   'P 1'
_cell_length_a   6.40187942
_cell_length_b   6.41812433
_cell_length_c   11.61303765
_cell_angle_alpha   90.00000000
_cell_angle_beta   90.00000000
_cell_angle_gamma   90.00000000
_symmetry_Int_Tables_number   1
_chemical_formula_structural   SiSbPt
_chemical_formula_sum   'Si8 Sb8 Pt8'
_cell_volume   477.15716525
_cell_formula_units_Z   8
loop_
 _symmetry_equiv_pos_site_id
 _symmetry_equiv_pos_as_xyz
  1  'x, y, z'
loop_
 _atom_site_type_symbol
 _atom_site_label
 _atom_site_symmetry_multiplicity
 _atom_site_fract_x
 _atom_site_fract_y
 _atom_site_fract_z
 _atom_site_occupancy
  Si  Si0  1  0.85399281  0.26570980  0.42599450  1
  Si  Si1  1  0.35399281  0.23429020  0.57400550  1
  Si  Si2  1  0.14600719  0.76570980  0.07400550  1
  Si  Si3  1  0.64600719  0.73429020  0.92599450  1
  Si  Si4  1  0.14600719  0.73429020  0.57400550  1
  Si  Si5  1  0.64600719  0.76570980  0.42599450  1
  Si  Si6  1  0.85399281  0.23429020  0.92599450  1
  Si  Si7  1  0.35399281  0.26570980  0.07400550  1
  Sb  Sb8  1  0.11673002  0.00625445  0.32729648  1
  Sb  Sb9  1  0.61673002  0.49374555  0.67270352  1
  Sb  Sb10  1  0.88326998  0.50625445  0.17270352  1
  Sb  Sb11  1  0.38326998  0.99374555  0.82729648  1
  Sb  Sb12  1  0.88326998  0.99374555  0.67270352  1
  Sb  Sb13  1  0.38326998  0.50625445  0.32729648  1
  Sb  Sb14  1  0.11673002  0.49374555  0.82729648  1
  Sb  Sb15  1  0.61673002  0.00625445  0.17270352  1
  Pt  Pt16  1  0.51168952  0.11848249  0.39350236  1
  Pt  Pt17  1  0.01168952  0.38151751  0.60649764  1
  Pt  Pt18  1  0.48831048  0.61848249  0.10649764  1
  Pt  Pt19  1  0.98831048  0.88151751  0.89350236  1
  Pt  Pt20  1  0.48831048  0.88151751  0.60649764  1
  Pt  Pt21  1  0.98831048  0.61848249  0.39350236  1
  Pt  Pt22  1  0.51168952  0.38151751  0.89350236  1
  Pt  Pt23  1  0.01168952  0.11848249  0.10649764  1
