# generated using pymatgen
data_CoO2
_symmetry_space_group_name_H-M   'P 1'
_cell_length_a   2.87482716
_cell_length_b   6.86721382
_cell_length_c   6.86777708
_cell_angle_alpha   87.71221694
_cell_angle_beta   77.91565927
_cell_angle_gamma   77.92141901
_symmetry_Int_Tables_number   1
_chemical_formula_structural   CoO2
_chemical_formula_sum   'Co4 O8'
_cell_volume   129.64336214
_cell_formula_units_Z   4
loop_
 _symmetry_equiv_pos_site_id
 _symmetry_equiv_pos_as_xyz
  1  'x, y, z'
loop_
 _atom_site_type_symbol
 _atom_site_label
 _atom_site_symmetry_multiplicity
 _atom_site_fract_x
 _atom_site_fract_y
 _atom_site_fract_z
 _atom_site_occupancy
  Co  Co0  1  0.65309885  0.18334360  0.51574948  1
  Co  Co1  1  0.16841431  0.48423201  0.18388496  1
  Co  Co2  1  0.83543089  0.51610997  0.81814829  1
  Co  Co3  1  0.35067553  0.81701055  0.48653125  1
  O  O4  1  0.83797486  0.70510199  0.62380841  1
  O  O5  1  0.46067590  0.37976971  0.70407035  1
  O  O6  1  0.54312251  0.62070143  0.29792106  1
  O  O7  1  0.16593149  0.29517486  0.37827867  1
  O  O8  1  0.15708659  0.04834490  0.64263906  1
  O  O9  1  0.79984207  0.35830562  0.04693356  1
  O  O10  1  0.84659873  0.95203215  0.35981052  1
  O  O11  1  0.20400027  0.64204920  0.95504040  1
