# generated using pymatgen
data_Sr3As4
_symmetry_space_group_name_H-M   'P 1'
_cell_length_a   6.04277640
_cell_length_b   8.09023116
_cell_length_c   9.52536740
_cell_angle_alpha   83.19678793
_cell_angle_beta   71.50669308
_cell_angle_gamma   68.07075673
_symmetry_Int_Tables_number   1
_chemical_formula_structural   Sr3As4
_chemical_formula_sum   'Sr6 As8'
_cell_volume   409.67070729
_cell_formula_units_Z   2
loop_
 _symmetry_equiv_pos_site_id
 _symmetry_equiv_pos_as_xyz
  1  'x, y, z'
loop_
 _atom_site_type_symbol
 _atom_site_label
 _atom_site_symmetry_multiplicity
 _atom_site_fract_x
 _atom_site_fract_y
 _atom_site_fract_z
 _atom_site_occupancy
  As  As0  1  0.41424599  0.67229706  0.50511311  1
  As  As1  1  0.59165615  0.32770294  0.49488689  1
  As  As2  1  0.83654304  0.82770294  0.00511311  1
  As  As3  1  0.66935909  0.17229706  0.99488689  1
  As  As4  1  0.31696681  0.17041638  0.65938179  1
  As  As5  1  0.14676497  0.82958362  0.34061821  1
  As  As6  1  0.72634860  0.67041638  0.84061821  1
  As  As7  1  0.23738319  0.32958362  0.15938179  1
  Sr  Sr8  1  0.55308587  0.00557555  0.33397967  1
  Sr  Sr9  1  0.89264109  0.99442445  0.66602033  1
  Sr  Sr10  1  0.30866142  0.49442445  0.83397967  1
  Sr  Sr11  1  0.63706554  0.50557555  0.16602033  1
  Sr  Sr12  1  0.00383913  0.50000000  0.50000000  1
  Sr  Sr13  1  0.25383913  0.00000000  0.00000000  1
