# generated using pymatgen
data_KSb
_symmetry_space_group_name_H-M   'P 1'
_cell_length_a   7.08454063
_cell_length_b   7.30612696
_cell_length_c   12.41543398
_cell_angle_alpha   97.17333679
_cell_angle_beta   90.00000000
_cell_angle_gamma   90.00000000
_symmetry_Int_Tables_number   1
_chemical_formula_structural   KSb
_chemical_formula_sum   'K8 Sb8'
_cell_volume   637.59981753
_cell_formula_units_Z   8
loop_
 _symmetry_equiv_pos_site_id
 _symmetry_equiv_pos_as_xyz
  1  'x, y, z'
loop_
 _atom_site_type_symbol
 _atom_site_label
 _atom_site_symmetry_multiplicity
 _atom_site_fract_x
 _atom_site_fract_y
 _atom_site_fract_z
 _atom_site_occupancy
  K  K0  1  0.39832441  0.11158173  0.33022150  1
  K  K1  1  0.89832441  0.38841827  0.16977850  1
  K  K2  1  0.60167559  0.88841827  0.66977850  1
  K  K3  1  0.10167559  0.61158173  0.83022150  1
  K  K4  1  0.66605617  0.79089907  0.03443909  1
  K  K5  1  0.16605617  0.70910093  0.46556091  1
  K  K6  1  0.33394383  0.20910093  0.96556091  1
  K  K7  1  0.83394383  0.29089907  0.53443909  1
  Sb  Sb8  1  0.89872864  0.96425215  0.28679200  1
  Sb  Sb9  1  0.39872864  0.53574785  0.21320800  1
  Sb  Sb10  1  0.10127136  0.03574785  0.71320800  1
  Sb  Sb11  1  0.60127136  0.46425215  0.78679200  1
  Sb  Sb12  1  0.16558552  0.80252253  0.12355374  1
  Sb  Sb13  1  0.66558552  0.69747747  0.37644626  1
  Sb  Sb14  1  0.83441448  0.19747747  0.87644626  1
  Sb  Sb15  1  0.33441448  0.30252253  0.62355374  1
