# generated using pymatgen
data_BaCaSn
_symmetry_space_group_name_H-M   'P 1'
_cell_length_a   5.32522358
_cell_length_b   8.91054163
_cell_length_c   9.77541945
_cell_angle_alpha   90.00000000
_cell_angle_beta   90.00000000
_cell_angle_gamma   90.00000000
_symmetry_Int_Tables_number   1
_chemical_formula_structural   BaCaSn
_chemical_formula_sum   'Ba4 Ca4 Sn4'
_cell_volume   463.84977621
_cell_formula_units_Z   4
loop_
 _symmetry_equiv_pos_site_id
 _symmetry_equiv_pos_as_xyz
  1  'x, y, z'
loop_
 _atom_site_type_symbol
 _atom_site_label
 _atom_site_symmetry_multiplicity
 _atom_site_fract_x
 _atom_site_fract_y
 _atom_site_fract_z
 _atom_site_occupancy
  Ca  Ca0  1  0.75000000  0.85583665  0.57134299  1
  Ca  Ca1  1  0.25000000  0.64416335  0.07134299  1
  Ca  Ca2  1  0.75000000  0.35583665  0.92865701  1
  Ca  Ca3  1  0.25000000  0.14416335  0.42865701  1
  Sn  Sn4  1  0.25000000  0.27489387  0.10842945  1
  Sn  Sn5  1  0.75000000  0.22510613  0.60842945  1
  Sn  Sn6  1  0.25000000  0.77489387  0.39157055  1
  Sn  Sn7  1  0.75000000  0.72510613  0.89157055  1
  Ba  Ba8  1  0.25000000  0.02143056  0.81860971  1
  Ba  Ba9  1  0.75000000  0.97856944  0.18139029  1
  Ba  Ba10  1  0.25000000  0.52143056  0.68139029  1
  Ba  Ba11  1  0.75000000  0.47856944  0.31860971  1
