# generated using pymatgen
data_ZnSeO4
_symmetry_space_group_name_H-M   'P 1'
_cell_length_a   6.17322232
_cell_length_b   4.92332116
_cell_length_c   4.87042614
_cell_angle_alpha   90.00000000
_cell_angle_beta   90.00000000
_cell_angle_gamma   90.00000000
_symmetry_Int_Tables_number   1
_chemical_formula_structural   ZnSeO4
_chemical_formula_sum   'Zn2 Se2 O8'
_cell_volume   148.02567365
_cell_formula_units_Z   2
loop_
 _symmetry_equiv_pos_site_id
 _symmetry_equiv_pos_as_xyz
  1  'x, y, z'
loop_
 _atom_site_type_symbol
 _atom_site_label
 _atom_site_symmetry_multiplicity
 _atom_site_fract_x
 _atom_site_fract_y
 _atom_site_fract_z
 _atom_site_occupancy
  Zn  Zn0  1  0.00000000  0.90174253  0.02744183  1
  Zn  Zn1  1  0.50000000  0.09825747  0.52744183  1
  Se  Se2  1  0.00000000  0.34180112  0.47810310  1
  Se  Se3  1  0.50000000  0.65819888  0.97810310  1
  O  O4  1  0.00000000  0.66505456  0.38501345  1
  O  O5  1  0.00000000  0.30249723  0.81646416  1
  O  O6  1  0.21250100  0.17523367  0.33245072  1
  O  O7  1  0.28749900  0.82476633  0.83245072  1
  O  O8  1  0.50000000  0.69750277  0.31646416  1
  O  O9  1  0.50000000  0.33494544  0.88501345  1
  O  O10  1  0.71250100  0.82476633  0.83245072  1
  O  O11  1  0.78749900  0.17523367  0.33245072  1
