# generated using pymatgen
data_NaSi
_symmetry_space_group_name_H-M   'P 1'
_cell_length_a   6.57365046
_cell_length_b   6.90506288
_cell_length_c   10.27959169
_cell_angle_alpha   77.71739981
_cell_angle_beta   71.35262738
_cell_angle_gamma   61.57537160
_symmetry_Int_Tables_number   1
_chemical_formula_structural   NaSi
_chemical_formula_sum   'Na8 Si8'
_cell_volume   387.78453483
_cell_formula_units_Z   8
loop_
 _symmetry_equiv_pos_site_id
 _symmetry_equiv_pos_as_xyz
  1  'x, y, z'
loop_
 _atom_site_type_symbol
 _atom_site_label
 _atom_site_symmetry_multiplicity
 _atom_site_fract_x
 _atom_site_fract_y
 _atom_site_fract_z
 _atom_site_occupancy
  Na  Na0  1  0.98900629  0.84248684  0.85877675  1
  Na  Na1  1  0.69026989  0.65751316  0.64122325  1
  Na  Na2  1  0.01099371  0.15751316  0.14122325  1
  Na  Na3  1  0.30973011  0.34248684  0.35877675  1
  Na  Na4  1  0.72520322  0.19119007  0.54693109  1
  Na  Na5  1  0.46332438  0.30880993  0.95306891  1
  Na  Na6  1  0.27479678  0.80880993  0.45306891  1
  Na  Na7  1  0.53667562  0.69119007  0.04693109  1
  Si  Si8  1  0.23155243  0.43467076  0.68725722  1
  Si  Si9  1  0.35348042  0.06532924  0.81274278  1
  Si  Si10  1  0.76844757  0.56532924  0.31274278  1
  Si  Si11  1  0.64651958  0.93467076  0.18725722  1
  Si  Si12  1  0.93905298  0.33923022  0.85725887  1
  Si  Si13  1  0.13554207  0.16076978  0.64274113  1
  Si  Si14  1  0.06094702  0.66076978  0.14274113  1
  Si  Si15  1  0.86445793  0.83923022  0.35725887  1
