# generated using pymatgen
data_KAlTe2
_symmetry_space_group_name_H-M   'P 1'
_cell_length_a   7.01807403
_cell_length_b   7.11505643
_cell_length_c   7.11505644
_cell_angle_alpha   75.92267546
_cell_angle_beta   60.44988114
_cell_angle_gamma   60.44988115
_symmetry_Int_Tables_number   1
_chemical_formula_structural   KAlTe2
_chemical_formula_sum   'K2 Al2 Te4'
_cell_volume   268.86723950
_cell_formula_units_Z   2
loop_
 _symmetry_equiv_pos_site_id
 _symmetry_equiv_pos_as_xyz
  1  'x, y, z'
loop_
 _atom_site_type_symbol
 _atom_site_label
 _atom_site_symmetry_multiplicity
 _atom_site_fract_x
 _atom_site_fract_y
 _atom_site_fract_z
 _atom_site_occupancy
  Al  Al0  1  0.75000000  0.50000000  0.50000000  1
  Al  Al1  1  0.25000000  0.50000000  0.50000000  1
  K  K2  1  0.75000000  0.00000000  0.00000000  1
  K  K3  1  0.25000000  0.00000000  0.00000000  1
  Te  Te4  1  0.16282831  0.50000000  0.17434338  1
  Te  Te5  1  0.33717169  0.82565662  0.50000000  1
  Te  Te6  1  0.66282831  0.17434338  0.50000000  1
  Te  Te7  1  0.83717169  0.50000000  0.82565662  1
