# generated using pymatgen
data_CaY2O4
_symmetry_space_group_name_H-M   'P 1'
_cell_length_a   6.86677280
_cell_length_b   6.86677280
_cell_length_c   6.86676398
_cell_angle_alpha   120.50979068
_cell_angle_beta   120.51013962
_cell_angle_gamma   89.11903557
_symmetry_Int_Tables_number   1
_chemical_formula_structural   CaY2O4
_chemical_formula_sum   'Ca2 Y4 O8'
_cell_volume   227.15691743
_cell_formula_units_Z   2
loop_
 _symmetry_equiv_pos_site_id
 _symmetry_equiv_pos_as_xyz
  1  'x, y, z'
loop_
 _atom_site_type_symbol
 _atom_site_label
 _atom_site_symmetry_multiplicity
 _atom_site_fract_x
 _atom_site_fract_y
 _atom_site_fract_z
 _atom_site_occupancy
  Ca  Ca0  1  0.74999702  0.24999702  0.50000000  1
  Ca  Ca1  1  0.00000298  0.00000298  0.00000000  1
  Y  Y2  1  0.87500000  0.62500000  0.25000000  1
  Y  Y3  1  0.37500000  0.12500000  0.75000000  1
  Y  Y4  1  0.37500000  0.62500000  0.25000000  1
  Y  Y5  1  0.37500000  0.62500000  0.75000000  1
  O  O6  1  0.61736208  0.39017319  0.22719180  1
  O  O7  1  0.14017196  0.41298260  0.27281057  1
  O  O8  1  0.60982804  0.83701740  0.22718943  1
  O  O9  1  0.60982797  0.38263861  0.77281057  1
  O  O10  1  0.16298139  0.39017028  0.77280820  1
  O  O11  1  0.58701861  0.85982972  0.72719180  1
  O  O12  1  0.13263792  0.85982681  0.27280820  1
  O  O13  1  0.14017203  0.86736139  0.72718943  1
