# generated using pymatgen
data_LiFePO4
_symmetry_space_group_name_H-M   'P 1'
_cell_length_a   7.22676523
_cell_length_b   7.22676523
_cell_length_c   7.22676523
_cell_angle_alpha   90.00000000
_cell_angle_beta   90.00000000
_cell_angle_gamma   90.00000000
_symmetry_Int_Tables_number   1
_chemical_formula_structural   LiFePO4
_chemical_formula_sum   'Li4 Fe4 P4 O16'
_cell_volume   377.42602150
_cell_formula_units_Z   4
loop_
 _symmetry_equiv_pos_site_id
 _symmetry_equiv_pos_as_xyz
  1  'x, y, z'
loop_
 _atom_site_type_symbol
 _atom_site_label
 _atom_site_symmetry_multiplicity
 _atom_site_fract_x
 _atom_site_fract_y
 _atom_site_fract_z
 _atom_site_occupancy
  Li  Li0  1  0.19715859  0.69715859  0.80284141  1
  Li  Li1  1  0.30284141  0.30284141  0.30284141  1
  Li  Li2  1  0.69715859  0.80284141  0.19715859  1
  Li  Li3  1  0.80284141  0.19715859  0.69715859  1
  Fe  Fe4  1  0.24883673  0.75116327  0.25116327  1
  Fe  Fe5  1  0.25116327  0.24883673  0.75116327  1
  Fe  Fe6  1  0.74883673  0.74883673  0.74883673  1
  Fe  Fe7  1  0.75116327  0.25116327  0.24883673  1
  P  P8  1  0.03345408  0.03345408  0.03345408  1
  P  P9  1  0.96654592  0.53345408  0.46654592  1
  P  P10  1  0.46654592  0.96654592  0.53345408  1
  P  P11  1  0.53345408  0.46654592  0.96654592  1
  O  O12  1  0.96906012  0.60361462  0.67280768  1
  O  O13  1  0.15417820  0.15417820  0.15417820  1
  O  O14  1  0.17280768  0.53093988  0.39638538  1
  O  O15  1  0.10361462  0.82719232  0.03093988  1
  O  O16  1  0.39638538  0.17280768  0.53093988  1
  O  O17  1  0.32719232  0.46906012  0.89638538  1
  O  O18  1  0.34582180  0.84582180  0.65417820  1
  O  O19  1  0.53093988  0.39638538  0.17280768  1
  O  O20  1  0.46906012  0.89638538  0.32719232  1
  O  O21  1  0.65417820  0.34582180  0.84582180  1
  O  O22  1  0.67280768  0.96906012  0.60361462  1
  O  O23  1  0.60361462  0.67280768  0.96906012  1
  O  O24  1  0.89638538  0.32719232  0.46906012  1
  O  O25  1  0.82719232  0.03093988  0.10361462  1
  O  O26  1  0.84582180  0.65417820  0.34582180  1
  O  O27  1  0.03093988  0.10361462  0.82719232  1
