# generated using pymatgen
data_K7NbAs4
_symmetry_space_group_name_H-M   'P 1'
_cell_length_a   8.41650722
_cell_length_b   9.26068810
_cell_length_c   10.37270365
_cell_angle_alpha   90.00000000
_cell_angle_beta   90.00000000
_cell_angle_gamma   90.00000000
_symmetry_Int_Tables_number   1
_chemical_formula_structural   K7NbAs4
_chemical_formula_sum   'K14 Nb2 As8'
_cell_volume   808.47599205
_cell_formula_units_Z   2
loop_
 _symmetry_equiv_pos_site_id
 _symmetry_equiv_pos_as_xyz
  1  'x, y, z'
loop_
 _atom_site_type_symbol
 _atom_site_label
 _atom_site_symmetry_multiplicity
 _atom_site_fract_x
 _atom_site_fract_y
 _atom_site_fract_z
 _atom_site_occupancy
  K  K0  1  0.70866282  0.83359596  0.28288066  1
  K  K1  1  0.20866282  0.16640404  0.21711934  1
  K  K2  1  0.20866282  0.16640404  0.78288066  1
  K  K3  1  0.70866282  0.83359596  0.71711934  1
  K  K4  1  0.87186755  0.46569601  0.28811428  1
  K  K5  1  0.37186755  0.53430399  0.21188572  1
  K  K6  1  0.37186755  0.53430399  0.78811428  1
  K  K7  1  0.87186755  0.46569601  0.71188572  1
  K  K8  1  0.16143397  0.66149505  0.50000000  1
  K  K9  1  0.66143397  0.33850495  0.00000000  1
  K  K10  1  0.87646702  0.03330176  0.00000000  1
  K  K11  1  0.37646702  0.96669824  0.50000000  1
  K  K12  1  0.39011276  0.89299870  0.00000000  1
  K  K13  1  0.89011276  0.10700130  0.50000000  1
  As  As14  1  0.70009698  0.68212718  0.00000000  1
  As  As15  1  0.20009698  0.31787282  0.50000000  1
  As  As16  1  0.09365131  0.80683515  0.20240970  1
  As  As17  1  0.59365131  0.19316485  0.29759030  1
  As  As18  1  0.59365131  0.19316485  0.70240970  1
  As  As19  1  0.09365131  0.80683515  0.79759030  1
  As  As20  1  0.57761271  0.59032063  0.50000000  1
  As  As21  1  0.07761271  0.40967937  0.00000000  1
  Nb  Nb22  1  0.99852320  0.67342259  0.00000000  1
  Nb  Nb23  1  0.49852320  0.32657741  0.50000000  1
