# generated using pymatgen
data_YF3
_symmetry_space_group_name_H-M   'P 1'
_cell_length_a   4.60698408
_cell_length_b   6.32867972
_cell_length_c   6.95635502
_cell_angle_alpha   90.00000000
_cell_angle_beta   90.00000000
_cell_angle_gamma   90.00000000
_symmetry_Int_Tables_number   1
_chemical_formula_structural   YF3
_chemical_formula_sum   'Y4 F12'
_cell_volume   202.82036845
_cell_formula_units_Z   4
loop_
 _symmetry_equiv_pos_site_id
 _symmetry_equiv_pos_as_xyz
  1  'x, y, z'
loop_
 _atom_site_type_symbol
 _atom_site_label
 _atom_site_symmetry_multiplicity
 _atom_site_fract_x
 _atom_site_fract_y
 _atom_site_fract_z
 _atom_site_occupancy
  F  F0  1  0.36211374  0.16294315  0.43648808  1
  F  F1  1  0.86211374  0.33705685  0.56351192  1
  F  F2  1  0.13788626  0.66294315  0.06351192  1
  F  F3  1  0.63788626  0.83705685  0.93648808  1
  F  F4  1  0.60951063  0.52897095  0.25000000  1
  F  F5  1  0.10951063  0.97102905  0.75000000  1
  F  F6  1  0.89048937  0.02897095  0.25000000  1
  F  F7  1  0.39048937  0.47102905  0.75000000  1
  F  F8  1  0.36211374  0.16294315  0.06351192  1
  F  F9  1  0.86211374  0.33705685  0.93648808  1
  F  F10  1  0.13788626  0.66294315  0.43648808  1
  F  F11  1  0.63788626  0.83705685  0.56351192  1
  Y  Y12  1  0.95174637  0.63376309  0.75000000  1
  Y  Y13  1  0.45174637  0.86623691  0.25000000  1
  Y  Y14  1  0.54825363  0.13376309  0.75000000  1
  Y  Y15  1  0.04825363  0.36623691  0.25000000  1
