# generated using pymatgen
data_As2O3
_symmetry_space_group_name_H-M   'P 1'
_cell_length_a   4.68540756
_cell_length_b   8.30976975
_cell_length_c   9.90223198
_cell_angle_alpha   100.59465003
_cell_angle_beta   90.00000000
_cell_angle_gamma   90.00000000
_symmetry_Int_Tables_number   1
_chemical_formula_structural   As2O3
_chemical_formula_sum   'As8 O12'
_cell_volume   378.96753063
_cell_formula_units_Z   4
loop_
 _symmetry_equiv_pos_site_id
 _symmetry_equiv_pos_as_xyz
  1  'x, y, z'
loop_
 _atom_site_type_symbol
 _atom_site_label
 _atom_site_symmetry_multiplicity
 _atom_site_fract_x
 _atom_site_fract_y
 _atom_site_fract_z
 _atom_site_occupancy
  O  O0  1  0.12487185  0.53166889  0.86021864  1
  O  O1  1  0.62487185  0.96833111  0.63978136  1
  O  O2  1  0.87512815  0.46833111  0.13978136  1
  O  O3  1  0.37512815  0.03166889  0.36021864  1
  O  O4  1  0.32782495  0.26619506  0.68676526  1
  O  O5  1  0.82782495  0.23380494  0.81323474  1
  O  O6  1  0.67217505  0.73380494  0.31323474  1
  O  O7  1  0.17217505  0.76619506  0.18676526  1
  O  O8  1  0.48664358  0.32047754  0.28832313  1
  O  O9  1  0.98664358  0.17952246  0.21167687  1
  O  O10  1  0.51335642  0.67952246  0.71167687  1
  O  O11  1  0.01335642  0.82047754  0.78832313  1
  As  As12  1  0.18046654  0.31567494  0.86277748  1
  As  As13  1  0.68046654  0.18432506  0.63722252  1
  As  As14  1  0.81953346  0.68432506  0.13722252  1
  As  As15  1  0.31953346  0.81567494  0.36277748  1
  As  As16  1  0.63868497  0.88109300  0.79753081  1
  As  As17  1  0.13868497  0.61890700  0.70246919  1
  As  As18  1  0.36131503  0.11890700  0.20246919  1
  As  As19  1  0.86131503  0.38109300  0.29753081  1
