# generated using pymatgen
data_LiFe2(PO4)2
_symmetry_space_group_name_H-M   'P 1'
_cell_length_a   6.36554512
_cell_length_b   4.90551425
_cell_length_c   8.17556264
_cell_angle_alpha   146.42014796
_cell_angle_beta   89.15287595
_cell_angle_gamma   90.64093897
_symmetry_Int_Tables_number   1
_chemical_formula_structural   LiFe2(PO4)2
_chemical_formula_sum   'Li1 Fe2 P2 O8'
_cell_volume   141.18611556
_cell_formula_units_Z   1
loop_
 _symmetry_equiv_pos_site_id
 _symmetry_equiv_pos_as_xyz
  1  'x, y, z'
loop_
 _atom_site_type_symbol
 _atom_site_label
 _atom_site_symmetry_multiplicity
 _atom_site_fract_x
 _atom_site_fract_y
 _atom_site_fract_z
 _atom_site_occupancy
  Li  Li0  1  0.73990176  0.50757605  0.83307214  1
  Fe  Fe1  1  0.00545436  0.50795205  0.49918728  1
  Fe  Fe2  1  0.48581486  0.50390500  0.49945539  1
  P  P3  1  0.23719542  0.50602242  0.85161236  1
  P  P4  1  0.74740332  0.50649275  0.15791286  1
  O  O5  1  0.04114682  0.50707024  0.74103796  1
  O  O6  1  0.22843178  0.03508291  0.72750920  1
  O  O7  1  0.22734045  0.97483364  0.19819311  1
  O  O8  1  0.44386609  0.50642433  0.75332955  1
  O  O9  1  0.54466203  0.50500875  0.25522429  1
  O  O10  1  0.75800072  0.04353018  0.80758113  1
  O  O11  1  0.75670888  0.96947408  0.27050745  1
  O  O12  1  0.94040551  0.50777463  0.26847128  1
