# generated using pymatgen
data_P2Rh
_symmetry_space_group_name_H-M   'P 1'
_cell_length_a   5.79158611
_cell_length_b   5.84430745
_cell_length_c   5.89129102
_cell_angle_alpha   90.00000000
_cell_angle_beta   112.38601878
_cell_angle_gamma   90.00000000
_symmetry_Int_Tables_number   1
_chemical_formula_structural   P2Rh
_chemical_formula_sum   'P8 Rh4'
_cell_volume   184.37976379
_cell_formula_units_Z   4
loop_
 _symmetry_equiv_pos_site_id
 _symmetry_equiv_pos_as_xyz
  1  'x, y, z'
loop_
 _atom_site_type_symbol
 _atom_site_label
 _atom_site_symmetry_multiplicity
 _atom_site_fract_x
 _atom_site_fract_y
 _atom_site_fract_z
 _atom_site_occupancy
  P  P0  1  0.16036053  0.87944199  0.86765656  1
  P  P1  1  0.83963947  0.37944199  0.63234344  1
  P  P2  1  0.83963947  0.12055801  0.13234344  1
  P  P3  1  0.16036053  0.62055801  0.36765656  1
  P  P4  1  0.33388351  0.37738599  0.18813621  1
  P  P5  1  0.66611649  0.87738599  0.31186379  1
  P  P6  1  0.66611649  0.62261401  0.81186379  1
  P  P7  1  0.33388351  0.12261401  0.68813621  1
  Rh  Rh8  1  0.27170525  0.49871662  0.79002806  1
  Rh  Rh9  1  0.72829475  0.99871662  0.70997194  1
  Rh  Rh10  1  0.72829475  0.50128338  0.20997194  1
  Rh  Rh11  1  0.27170525  0.00128338  0.29002806  1
