# generated using pymatgen
data_Cr4OF11
_symmetry_space_group_name_H-M   'P 1'
_cell_length_a   5.09924301
_cell_length_b   7.29265032
_cell_length_c   5.36447841
_cell_angle_alpha   94.06060400
_cell_angle_beta   90.00000000
_cell_angle_gamma   90.00000000
_symmetry_Int_Tables_number   1
_chemical_formula_structural   Cr4OF11
_chemical_formula_sum   'Cr4 O1 F11'
_cell_volume   198.98806263
_cell_formula_units_Z   1
loop_
 _symmetry_equiv_pos_site_id
 _symmetry_equiv_pos_as_xyz
  1  'x, y, z'
loop_
 _atom_site_type_symbol
 _atom_site_label
 _atom_site_symmetry_multiplicity
 _atom_site_fract_x
 _atom_site_fract_y
 _atom_site_fract_z
 _atom_site_occupancy
  Cr  Cr0  1  0.50191254  0.51128055  0.49945979  1
  Cr  Cr1  1  0.50191254  0.98871945  0.50054021  1
  Cr  Cr2  1  0.99853253  0.49958952  0.99898594  1
  Cr  Cr3  1  0.99853253  0.00041048  0.00101406  1
  O  O4  1  0.62088214  0.75000000  0.50000000  1
  F  F5  1  0.87089045  0.75000000  0.00000000  1
  F  F6  1  0.80773413  0.05968503  0.30936716  1
  F  F7  1  0.80773413  0.44031497  0.69063284  1
  F  F8  1  0.68923464  0.43957291  0.19082318  1
  F  F9  1  0.68923464  0.06042709  0.80917682  1
  F  F10  1  0.39288562  0.25000000  0.50000000  1
  F  F11  1  0.30944890  0.93865577  0.18998428  1
  F  F12  1  0.30944890  0.56134423  0.81001572  1
  F  F13  1  0.18793801  0.56117041  0.31015007  1
  F  F14  1  0.18793801  0.93882959  0.68984993  1
  F  F15  1  0.12574228  0.25000000  0.00000000  1
