# generated using pymatgen
data_NO2
_symmetry_space_group_name_H-M   'P 1'
_cell_length_a   4.95106809
_cell_length_b   6.19645790
_cell_length_c   6.71713023
_cell_angle_alpha   116.13494420
_cell_angle_beta   90.00000000
_cell_angle_gamma   90.00000000
_symmetry_Int_Tables_number   1
_chemical_formula_structural   NO2
_chemical_formula_sum   'N4 O8'
_cell_volume   185.00607261
_cell_formula_units_Z   4
loop_
 _symmetry_equiv_pos_site_id
 _symmetry_equiv_pos_as_xyz
  1  'x, y, z'
loop_
 _atom_site_type_symbol
 _atom_site_label
 _atom_site_symmetry_multiplicity
 _atom_site_fract_x
 _atom_site_fract_y
 _atom_site_fract_z
 _atom_site_occupancy
  N  N0  1  0.99655391  0.86229946  0.02138664  1
  N  N1  1  0.49655391  0.63770054  0.47861336  1
  N  N2  1  0.00344609  0.13770054  0.97861336  1
  N  N3  1  0.50344609  0.36229946  0.52138664  1
  O  O4  1  0.81355498  0.86121089  0.13889165  1
  O  O5  1  0.31355498  0.63878911  0.36110835  1
  O  O6  1  0.18644502  0.13878911  0.86110835  1
  O  O7  1  0.68644502  0.36121089  0.63889165  1
  O  O8  1  0.17662831  0.72480265  0.92569725  1
  O  O9  1  0.67662831  0.77519735  0.57430275  1
  O  O10  1  0.82337169  0.27519735  0.07430275  1
  O  O11  1  0.32337169  0.22480265  0.42569725  1
