# generated using pymatgen
data_Cd3P2
_symmetry_space_group_name_H-M   'P 1'
_cell_length_a   8.87946165
_cell_length_b   8.87946165
_cell_length_c   12.48326012
_cell_angle_alpha   90.00000000
_cell_angle_beta   90.00000000
_cell_angle_gamma   90.00000000
_symmetry_Int_Tables_number   1
_chemical_formula_structural   Cd3P2
_chemical_formula_sum   'Cd24 P16'
_cell_volume   984.24063678
_cell_formula_units_Z   8
loop_
 _symmetry_equiv_pos_site_id
 _symmetry_equiv_pos_as_xyz
  1  'x, y, z'
loop_
 _atom_site_type_symbol
 _atom_site_label
 _atom_site_symmetry_multiplicity
 _atom_site_fract_x
 _atom_site_fract_y
 _atom_site_fract_z
 _atom_site_occupancy
  P  P0  1  0.75000000  0.75000000  0.50846866  1
  P  P1  1  0.75000000  0.75000000  0.00846866  1
  P  P2  1  0.25000000  0.25000000  0.49153134  1
  P  P3  1  0.25000000  0.25000000  0.99153134  1
  P  P4  1  0.75000000  0.25000000  0.50729226  1
  P  P5  1  0.25000000  0.75000000  0.00729226  1
  P  P6  1  0.25000000  0.75000000  0.49270774  1
  P  P7  1  0.75000000  0.25000000  0.99270774  1
  P  P8  1  0.00754634  0.99245366  0.75000000  1
  P  P9  1  0.50754634  0.00754634  0.25000000  1
  P  P10  1  0.99245366  0.49245366  0.25000000  1
  P  P11  1  0.49245366  0.50754634  0.75000000  1
  P  P12  1  0.99245366  0.00754634  0.25000000  1
  P  P13  1  0.49245366  0.99245366  0.75000000  1
  P  P14  1  0.00754634  0.50754634  0.75000000  1
  P  P15  1  0.50754634  0.49245366  0.25000000  1
  Cd  Cd16  1  0.46051439  0.25000000  0.13307757  1
  Cd  Cd17  1  0.25000000  0.46051439  0.63307757  1
  Cd  Cd18  1  0.25000000  0.03948561  0.63307757  1
  Cd  Cd19  1  0.96051439  0.75000000  0.86692243  1
  Cd  Cd20  1  0.53948561  0.75000000  0.86692243  1
  Cd  Cd21  1  0.03948561  0.25000000  0.13307757  1
  Cd  Cd22  1  0.75000000  0.96051439  0.36692243  1
  Cd  Cd23  1  0.75000000  0.53948561  0.36692243  1
  Cd  Cd24  1  0.50640193  0.25000000  0.40050468  1
  Cd  Cd25  1  0.99359807  0.25000000  0.40050468  1
  Cd  Cd26  1  0.75000000  0.00640193  0.09949532  1
  Cd  Cd27  1  0.25000000  0.99359807  0.90050468  1
  Cd  Cd28  1  0.25000000  0.50640193  0.90050468  1
  Cd  Cd29  1  0.49359807  0.75000000  0.59949532  1
  Cd  Cd30  1  0.00640193  0.75000000  0.59949532  1
  Cd  Cd31  1  0.75000000  0.49359807  0.09949532  1
  Cd  Cd32  1  0.25000000  0.53557679  0.35131353  1
  Cd  Cd33  1  0.25000000  0.96442321  0.35131353  1
  Cd  Cd34  1  0.03557679  0.75000000  0.14868647  1
  Cd  Cd35  1  0.53557679  0.25000000  0.85131353  1
  Cd  Cd36  1  0.96442321  0.25000000  0.85131353  1
  Cd  Cd37  1  0.75000000  0.03557679  0.64868647  1
  Cd  Cd38  1  0.75000000  0.46442321  0.64868647  1
  Cd  Cd39  1  0.46442321  0.75000000  0.14868647  1
