# generated using pymatgen
data_P2O5
_symmetry_space_group_name_H-M   'P 1'
_cell_length_a   4.93704081
_cell_length_b   4.93704081
_cell_length_c   8.74566262
_cell_angle_alpha   100.27232561
_cell_angle_beta   100.27232563
_cell_angle_gamma   111.60524058
_symmetry_Int_Tables_number   1
_chemical_formula_structural   P2O5
_chemical_formula_sum   'P4 O10'
_cell_volume   187.95289940
_cell_formula_units_Z   2
loop_
 _symmetry_equiv_pos_site_id
 _symmetry_equiv_pos_as_xyz
  1  'x, y, z'
loop_
 _atom_site_type_symbol
 _atom_site_label
 _atom_site_symmetry_multiplicity
 _atom_site_fract_x
 _atom_site_fract_y
 _atom_site_fract_z
 _atom_site_occupancy
  O  O0  1  0.89369105  0.72685380  0.38325428  1
  O  O1  1  0.34359952  0.51043677  0.61674572  1
  O  O2  1  0.47685380  0.14369105  0.88325428  1
  O  O3  1  0.26043677  0.59359952  0.11674572  1
  O  O4  1  0.00925484  0.00925484  0.00000000  1
  O  O5  1  0.75925484  0.25925484  0.50000000  1
  O  O6  1  0.87068720  0.21227038  0.23097533  1
  O  O7  1  0.98129505  0.63971187  0.76902467  1
  O  O8  1  0.96227038  0.12068720  0.73097533  1
  O  O9  1  0.38971187  0.23129505  0.26902467  1
  P  P10  1  0.74482075  0.39851608  0.34786449  1
  P  P11  1  0.05065159  0.39695626  0.65213551  1
  P  P12  1  0.14851608  0.99482075  0.84786449  1
  P  P13  1  0.14695626  0.30065159  0.15213551  1
