# generated using pymatgen
data_Sr3CrN4
_symmetry_space_group_name_H-M   'P 1'
_cell_length_a   9.62624717
_cell_length_b   10.23686308
_cell_length_c   11.36235589
_cell_angle_alpha   90.00000000
_cell_angle_beta   90.00000000
_cell_angle_gamma   90.00000000
_symmetry_Int_Tables_number   1
_chemical_formula_structural   Sr3CrN4
_chemical_formula_sum   'Sr24 Cr8 N32'
_cell_volume   1119.67579899
_cell_formula_units_Z   8
loop_
 _symmetry_equiv_pos_site_id
 _symmetry_equiv_pos_as_xyz
  1  'x, y, z'
loop_
 _atom_site_type_symbol
 _atom_site_label
 _atom_site_symmetry_multiplicity
 _atom_site_fract_x
 _atom_site_fract_y
 _atom_site_fract_z
 _atom_site_occupancy
  N  N0  1  0.78680187  0.23059037  0.67416670  1
  N  N1  1  0.28680187  0.76940963  0.82583330  1
  N  N2  1  0.71319813  0.73059037  0.32583330  1
  N  N3  1  0.21319813  0.26940963  0.17416670  1
  N  N4  1  0.21319813  0.76940963  0.32583330  1
  N  N5  1  0.71319813  0.23059037  0.17416670  1
  N  N6  1  0.28680187  0.26940963  0.67416670  1
  N  N7  1  0.78680187  0.73059037  0.82583330  1
  N  N8  1  0.81229257  0.49735477  0.96694258  1
  N  N9  1  0.31229257  0.50264523  0.53305742  1
  N  N10  1  0.68770743  0.99735477  0.03305742  1
  N  N11  1  0.18770743  0.00264523  0.46694258  1
  N  N12  1  0.18770743  0.50264523  0.03305742  1
  N  N13  1  0.68770743  0.49735477  0.46694258  1
  N  N14  1  0.31229257  0.00264523  0.96694258  1
  N  N15  1  0.62065209  0.00071853  0.71994560  1
  N  N16  1  0.56927709  0.15416995  0.51173324  1
  N  N17  1  0.06927709  0.84583005  0.98826676  1
  N  N18  1  0.93072291  0.65416995  0.48826676  1
  N  N19  1  0.43072291  0.34583005  0.01173324  1
  N  N20  1  0.43072291  0.84583005  0.48826676  1
  N  N21  1  0.93072291  0.15416995  0.01173324  1
  N  N22  1  0.06927709  0.34583005  0.51173324  1
  N  N23  1  0.56927709  0.65416995  0.98826676  1
  N  N24  1  0.62065209  0.50071853  0.78005440  1
  N  N25  1  0.12065209  0.49928147  0.71994560  1
  N  N26  1  0.87934791  0.00071853  0.21994560  1
  N  N27  1  0.37934791  0.99928147  0.28005440  1
  N  N28  1  0.37934791  0.49928147  0.21994560  1
  N  N29  1  0.87934791  0.50071853  0.28005440  1
  N  N30  1  0.12065209  0.99928147  0.78005440  1
  N  N31  1  0.81229257  0.99735477  0.53305742  1
  Cr  Cr32  1  0.69645953  0.09817994  0.61185680  1
  Cr  Cr33  1  0.19645953  0.90182006  0.88814320  1
  Cr  Cr34  1  0.80354047  0.59817994  0.38814320  1
  Cr  Cr35  1  0.30354047  0.40182006  0.11185680  1
  Cr  Cr36  1  0.30354047  0.90182006  0.38814320  1
  Cr  Cr37  1  0.80354047  0.09817994  0.11185680  1
  Cr  Cr38  1  0.19645953  0.40182006  0.61185680  1
  Cr  Cr39  1  0.69645953  0.59817994  0.88814320  1
  Sr  Sr40  1  0.52893462  0.37238678  0.60642504  1
  Sr  Sr41  1  0.20015911  0.71725153  0.61516318  1
  Sr  Sr42  1  0.79984089  0.78274847  0.11516318  1
  Sr  Sr43  1  0.29984089  0.21725153  0.38483682  1
  Sr  Sr44  1  0.29984089  0.71725153  0.11516318  1
  Sr  Sr45  1  0.79984089  0.28274847  0.38483682  1
  Sr  Sr46  1  0.20015911  0.21725153  0.88483682  1
  Sr  Sr47  1  0.70015911  0.78274847  0.61516318  1
  Sr  Sr48  1  0.70015911  0.28274847  0.88483682  1
  Sr  Sr49  1  0.02893462  0.62761322  0.89357496  1
  Sr  Sr50  1  0.97106538  0.87238678  0.39357496  1
  Sr  Sr51  1  0.47106538  0.12761322  0.10642504  1
  Sr  Sr52  1  0.47106538  0.62761322  0.39357496  1
  Sr  Sr53  1  0.97106538  0.37238678  0.10642504  1
  Sr  Sr54  1  0.02893462  0.12761322  0.60642504  1
  Sr  Sr55  1  0.52893462  0.87238678  0.89357496  1
  Sr  Sr56  1  0.87417577  0.47236788  0.64199440  1
  Sr  Sr57  1  0.37417577  0.52763212  0.85800560  1
  Sr  Sr58  1  0.62582423  0.97236788  0.35800560  1
  Sr  Sr59  1  0.12582423  0.02763212  0.14199440  1
  Sr  Sr60  1  0.12582423  0.52763212  0.35800560  1
  Sr  Sr61  1  0.62582423  0.47236788  0.14199440  1
  Sr  Sr62  1  0.37417577  0.02763212  0.64199440  1
  Sr  Sr63  1  0.87417577  0.97236788  0.85800560  1
