# generated using pymatgen
data_Li2Mn(NiO3)2
_symmetry_space_group_name_H-M   'P 1'
_cell_length_a   2.92582915
_cell_length_b   6.53900935
_cell_length_c   5.92260785
_cell_angle_alpha   105.47425357
_cell_angle_beta   90.00355963
_cell_angle_gamma   102.96304395
_symmetry_Int_Tables_number   1
_chemical_formula_structural   Li2Mn(NiO3)2
_chemical_formula_sum   'Li2 Mn1 Ni2 O6'
_cell_volume   106.20416216
_cell_formula_units_Z   1
loop_
 _symmetry_equiv_pos_site_id
 _symmetry_equiv_pos_as_xyz
  1  'x, y, z'
loop_
 _atom_site_type_symbol
 _atom_site_label
 _atom_site_symmetry_multiplicity
 _atom_site_fract_x
 _atom_site_fract_y
 _atom_site_fract_z
 _atom_site_occupancy
  Li  Li0  1  0.66391605  0.34510135  0.85579443  1
  Li  Li1  1  0.98514503  0.98905541  0.47813927  1
  Mn  Mn2  1  0.34986773  0.66643250  0.66672118  1
  Ni  Ni3  1  0.65969083  0.33495357  0.33140087  1
  Ni  Ni4  1  0.99250639  0.99839751  0.00155588  1
  O  O5  1  0.52703002  0.97976565  0.75564566  1
  O  O6  1  0.84107671  0.65078790  0.44696527  1
  O  O7  1  0.10876137  0.30589295  0.09377176  1
  O  O8  1  0.85751667  0.68227785  0.88648952  1
  O  O9  1  0.21161454  0.35301323  0.57755152  1
  O  O10  1  0.46954066  0.02765709  0.23929964  1
