# generated using pymatgen
data_Cs3MgH5
_symmetry_space_group_name_H-M   'P 1'
_cell_length_a   8.43329098
_cell_length_b   8.43329098
_cell_length_c   12.84082404
_cell_angle_alpha   90.00000000
_cell_angle_beta   90.00000000
_cell_angle_gamma   90.00000000
_symmetry_Int_Tables_number   1
_chemical_formula_structural   Cs3MgH5
_chemical_formula_sum   'Cs12 Mg4 H20'
_cell_volume   913.24450036
_cell_formula_units_Z   4
loop_
 _symmetry_equiv_pos_site_id
 _symmetry_equiv_pos_as_xyz
  1  'x, y, z'
loop_
 _atom_site_type_symbol
 _atom_site_label
 _atom_site_symmetry_multiplicity
 _atom_site_fract_x
 _atom_site_fract_y
 _atom_site_fract_z
 _atom_site_occupancy
  H  H0  1  0.00000000  0.50000000  0.74133415  1
  H  H1  1  0.50000000  0.00000000  0.75866585  1
  H  H2  1  0.50000000  0.00000000  0.25866585  1
  H  H3  1  0.00000000  0.50000000  0.24133415  1
  H  H4  1  0.38533399  0.63416443  0.58757308  1
  H  H5  1  0.61466601  0.36583557  0.58757308  1
  H  H6  1  0.63416443  0.38533399  0.91242692  1
  H  H7  1  0.13416443  0.11466601  0.58757308  1
  H  H8  1  0.86583557  0.88533399  0.58757308  1
  H  H9  1  0.11466601  0.13416443  0.91242692  1
  H  H10  1  0.88533399  0.86583557  0.91242692  1
  H  H11  1  0.36583557  0.61466601  0.91242692  1
  H  H12  1  0.11466601  0.86583557  0.41242692  1
  H  H13  1  0.88533399  0.13416443  0.41242692  1
  H  H14  1  0.86583557  0.11466601  0.08757308  1
  H  H15  1  0.36583557  0.38533399  0.41242692  1
  H  H16  1  0.13416443  0.88533399  0.08757308  1
  H  H17  1  0.61466601  0.63416443  0.08757308  1
  H  H18  1  0.38533399  0.36583557  0.08757308  1
  H  H19  1  0.63416443  0.61466601  0.41242692  1
  Mg  Mg20  1  0.00000000  0.00000000  0.50000000  1
  Mg  Mg21  1  0.50000000  0.50000000  0.50000000  1
  Mg  Mg22  1  0.50000000  0.50000000  0.00000000  1
  Mg  Mg23  1  0.00000000  0.00000000  0.00000000  1
  Cs  Cs24  1  0.00000000  0.50000000  0.49625594  1
  Cs  Cs25  1  0.50000000  0.00000000  0.00374406  1
  Cs  Cs26  1  0.50000000  0.00000000  0.50374406  1
  Cs  Cs27  1  0.00000000  0.50000000  0.99625594  1
  Cs  Cs28  1  0.68022576  0.68022576  0.75000000  1
  Cs  Cs29  1  0.81977424  0.18022576  0.75000000  1
  Cs  Cs30  1  0.18022576  0.81977424  0.75000000  1
  Cs  Cs31  1  0.31977424  0.31977424  0.75000000  1
  Cs  Cs32  1  0.81977424  0.81977424  0.25000000  1
  Cs  Cs33  1  0.68022576  0.31977424  0.25000000  1
  Cs  Cs34  1  0.31977424  0.68022576  0.25000000  1
  Cs  Cs35  1  0.18022576  0.18022576  0.25000000  1
