# generated using pymatgen
data_HfCl4
_symmetry_space_group_name_H-M   'P 1'
_cell_length_a   6.32372402
_cell_length_b   6.91605237
_cell_length_c   7.94315894
_cell_angle_alpha   90.00000000
_cell_angle_beta   90.00000000
_cell_angle_gamma   107.92936824
_symmetry_Int_Tables_number   1
_chemical_formula_structural   HfCl4
_chemical_formula_sum   'Hf2 Cl8'
_cell_volume   330.52502761
_cell_formula_units_Z   2
loop_
 _symmetry_equiv_pos_site_id
 _symmetry_equiv_pos_as_xyz
  1  'x, y, z'
loop_
 _atom_site_type_symbol
 _atom_site_label
 _atom_site_symmetry_multiplicity
 _atom_site_fract_x
 _atom_site_fract_y
 _atom_site_fract_z
 _atom_site_occupancy
  Cl  Cl0  1  0.50497991  0.29445259  0.39977435  1
  Cl  Cl1  1  0.99502009  0.70554741  0.39977435  1
  Cl  Cl2  1  0.03610704  0.26416913  0.15946713  1
  Cl  Cl3  1  0.46389296  0.73583087  0.15946713  1
  Cl  Cl4  1  0.96389296  0.73583087  0.84053287  1
  Cl  Cl5  1  0.53610704  0.26416913  0.84053287  1
  Cl  Cl6  1  0.00497991  0.29445259  0.60022565  1
  Cl  Cl7  1  0.49502009  0.70554741  0.60022565  1
  Hf  Hf8  1  0.75000000  0.50000000  0.65261259  1
  Hf  Hf9  1  0.25000000  0.50000000  0.34738741  1
