# generated using pymatgen
data_HgHClO4
_symmetry_space_group_name_H-M   'P 1'
_cell_length_a   4.77626942
_cell_length_b   7.38510052
_cell_length_c   11.69828679
_cell_angle_alpha   90.00000000
_cell_angle_beta   90.00000000
_cell_angle_gamma   90.00000000
_symmetry_Int_Tables_number   1
_chemical_formula_structural   HgHClO4
_chemical_formula_sum   'Hg4 H4 Cl4 O16'
_cell_volume   412.63635794
_cell_formula_units_Z   4
loop_
 _symmetry_equiv_pos_site_id
 _symmetry_equiv_pos_as_xyz
  1  'x, y, z'
loop_
 _atom_site_type_symbol
 _atom_site_label
 _atom_site_symmetry_multiplicity
 _atom_site_fract_x
 _atom_site_fract_y
 _atom_site_fract_z
 _atom_site_occupancy
  H  H0  1  0.44961859  0.75000000  0.40582756  1
  H  H1  1  0.44961859  0.25000000  0.09417244  1
  H  H2  1  0.55038141  0.25000000  0.59417244  1
  H  H3  1  0.55038141  0.75000000  0.90582756  1
  O  O4  1  0.42546722  0.75000000  0.83717930  1
  O  O5  1  0.42546722  0.25000000  0.66282070  1
  O  O6  1  0.57453278  0.25000000  0.16282070  1
  O  O7  1  0.57453278  0.75000000  0.33717930  1
  O  O8  1  0.94496657  0.41494123  0.86694724  1
  O  O9  1  0.94496657  0.58505877  0.63305276  1
  O  O10  1  0.05503343  0.91494123  0.13305276  1
  O  O11  1  0.05503343  0.08505877  0.36694724  1
  O  O12  1  0.32268419  0.75000000  0.54473935  1
  O  O13  1  0.32268419  0.25000000  0.95526065  1
  O  O14  1  0.67731581  0.25000000  0.45526065  1
  O  O15  1  0.67731581  0.75000000  0.04473935  1
  O  O16  1  0.94496657  0.91494123  0.63305276  1
  O  O17  1  0.94496657  0.08505877  0.86694724  1
  O  O18  1  0.05503343  0.41494123  0.36694724  1
  O  O19  1  0.05503343  0.58505877  0.13305276  1
  Cl  Cl20  1  0.99380744  0.75000000  0.06181754  1
  Cl  Cl21  1  0.99380744  0.25000000  0.43818246  1
  Cl  Cl22  1  0.00619256  0.25000000  0.93818246  1
  Cl  Cl23  1  0.00619256  0.75000000  0.56181754  1
  Hg  Hg24  1  0.43809650  0.50000000  0.75000000  1
  Hg  Hg25  1  0.56190350  0.00000000  0.25000000  1
  Hg  Hg26  1  0.56190350  0.50000000  0.25000000  1
  Hg  Hg27  1  0.43809650  0.00000000  0.75000000  1
