# generated using pymatgen
data_TlFeBr4
_symmetry_space_group_name_H-M   'P 1'
_cell_length_a   7.79709961
_cell_length_b   10.67410120
_cell_length_c   10.73809522
_cell_angle_alpha   90.00000000
_cell_angle_beta   90.00000000
_cell_angle_gamma   90.00000000
_symmetry_Int_Tables_number   1
_chemical_formula_structural   TlFeBr4
_chemical_formula_sum   'Tl4 Fe4 Br16'
_cell_volume   893.69977628
_cell_formula_units_Z   4
loop_
 _symmetry_equiv_pos_site_id
 _symmetry_equiv_pos_as_xyz
  1  'x, y, z'
loop_
 _atom_site_type_symbol
 _atom_site_label
 _atom_site_symmetry_multiplicity
 _atom_site_fract_x
 _atom_site_fract_y
 _atom_site_fract_z
 _atom_site_occupancy
  Fe  Fe0  1  0.75000000  0.81843661  0.00000000  1
  Fe  Fe1  1  0.25000000  0.31843661  0.50000000  1
  Fe  Fe2  1  0.25000000  0.18156339  0.00000000  1
  Fe  Fe3  1  0.75000000  0.68156339  0.50000000  1
  Br  Br4  1  0.49151142  0.18997767  0.53999576  1
  Br  Br5  1  0.00848858  0.31002233  0.03999576  1
  Br  Br6  1  0.00848858  0.18997767  0.46000424  1
  Br  Br7  1  0.49151142  0.31002233  0.96000424  1
  Br  Br8  1  0.67461706  0.94181007  0.82613438  1
  Br  Br9  1  0.67461706  0.55818993  0.67386562  1
  Br  Br10  1  0.82538294  0.94181007  0.17386562  1
  Br  Br11  1  0.82538294  0.55818993  0.32613438  1
  Br  Br12  1  0.32538294  0.05818993  0.17386562  1
  Br  Br13  1  0.32538294  0.44181007  0.32613438  1
  Br  Br14  1  0.17461706  0.05818993  0.82613438  1
  Br  Br15  1  0.17461706  0.44181007  0.67386562  1
  Br  Br16  1  0.99151142  0.68997767  0.96000424  1
  Br  Br17  1  0.99151142  0.81002233  0.53999576  1
  Br  Br18  1  0.50848858  0.68997767  0.03999576  1
  Br  Br19  1  0.50848858  0.81002233  0.46000424  1
  Tl  Tl20  1  0.83626050  0.25000000  0.75000000  1
  Tl  Tl21  1  0.66373950  0.25000000  0.25000000  1
  Tl  Tl22  1  0.16373950  0.75000000  0.25000000  1
  Tl  Tl23  1  0.33626050  0.75000000  0.75000000  1
