# generated using pymatgen
data_Li5(CoO3)2
_symmetry_space_group_name_H-M   'P 1'
_cell_length_a   5.43945904
_cell_length_b   5.56644939
_cell_length_c   5.46913624
_cell_angle_alpha   118.30844274
_cell_angle_beta   89.09220521
_cell_angle_gamma   90.05775834
_symmetry_Int_Tables_number   1
_chemical_formula_structural   Li5(CoO3)2
_chemical_formula_sum   'Li5 Co2 O6'
_cell_volume   145.77064400
_cell_formula_units_Z   1
loop_
 _symmetry_equiv_pos_site_id
 _symmetry_equiv_pos_as_xyz
  1  'x, y, z'
loop_
 _atom_site_type_symbol
 _atom_site_label
 _atom_site_symmetry_multiplicity
 _atom_site_fract_x
 _atom_site_fract_y
 _atom_site_fract_z
 _atom_site_occupancy
  Li  Li0  1  0.11442940  0.19236456  0.49104690  1
  Li  Li1  1  0.13156527  0.80097798  0.98660769  1
  Li  Li2  1  0.56129905  0.96115998  0.26679948  1
  Li  Li3  1  0.85105852  0.20517762  0.99880219  1
  Li  Li4  1  0.90046477  0.81069046  0.50282497  1
  Co  Co5  1  0.34788894  0.50870872  0.32903201  1
  Co  Co6  1  0.66073309  0.50336483  0.68974834  1
  O  O7  1  0.20276677  0.19722879  0.11754372  1
  O  O8  1  0.23168599  0.81123565  0.33491775  1
  O  O9  1  0.30473108  0.51966320  0.67589419  1
  O  O10  1  0.68759785  0.49917208  0.31935758  1
  O  O11  1  0.78071276  0.17616495  0.61940906  1
  O  O12  1  0.78073052  0.82249818  0.93299215  1
