# generated using pymatgen
data_VPH7N2O5
_symmetry_space_group_name_H-M   'P 1'
_cell_length_a   6.90767296
_cell_length_b   4.95945317
_cell_length_c   8.56210215
_cell_angle_alpha   90.00000000
_cell_angle_beta   90.95053875
_cell_angle_gamma   90.00000000
_symmetry_Int_Tables_number   1
_chemical_formula_structural   VPH7N2O5
_chemical_formula_sum   'V2 P2 H14 N4 O10'
_cell_volume   293.28253311
_cell_formula_units_Z   2
loop_
 _symmetry_equiv_pos_site_id
 _symmetry_equiv_pos_as_xyz
  1  'x, y, z'
loop_
 _atom_site_type_symbol
 _atom_site_label
 _atom_site_symmetry_multiplicity
 _atom_site_fract_x
 _atom_site_fract_y
 _atom_site_fract_z
 _atom_site_occupancy
  V  V0  1  0.36113724  0.66163725  0.66106215  1
  V  V1  1  0.63886276  0.16163725  0.33893785  1
  P  P2  1  0.36594131  0.70733590  0.27646085  1
  P  P3  1  0.63405869  0.20733590  0.72353915  1
  H  H4  1  0.05774721  0.23841825  0.93467774  1
  H  H5  1  0.08463955  0.43465709  0.48132427  1
  H  H6  1  0.09087124  0.27691331  0.65094316  1
  H  H7  1  0.17849062  0.04301564  0.06848755  1
  H  H8  1  0.16994153  0.37924032  0.09357064  1
  H  H9  1  0.24756150  0.19727876  0.51126056  1
  H  H10  1  0.30201560  0.25315176  0.94619925  1
  H  H11  1  0.69798440  0.75315176  0.05380075  1
  H  H12  1  0.75243850  0.69727876  0.48873944  1
  H  H13  1  0.83005847  0.87924032  0.90642936  1
  H  H14  1  0.82150938  0.54301564  0.93151245  1
  H  H15  1  0.90912876  0.77691331  0.34905684  1
  H  H16  1  0.91536045  0.93465709  0.51867573  1
  H  H17  1  0.94225279  0.73841825  0.06532226  1
  N  N18  1  0.17562583  0.35293489  0.56398691  1
  N  N19  1  0.17615108  0.22799287  0.01028260  1
  N  N20  1  0.82384892  0.72799287  0.98971740  1
  N  N21  1  0.82437417  0.85293489  0.43601309  1
  O  O22  1  0.16770750  0.74346474  0.19730974  1
  O  O23  1  0.18142539  0.79946239  0.75376224  1
  O  O24  1  0.37275709  0.82856992  0.44797833  1
  O  O25  1  0.41737243  0.40434522  0.27807899  1
  O  O26  1  0.47405286  0.37737568  0.80595998  1
  O  O27  1  0.52594714  0.87737568  0.19404002  1
  O  O28  1  0.58262757  0.90434522  0.72192101  1
  O  O29  1  0.62724291  0.32856992  0.55202167  1
  O  O30  1  0.81857461  0.29946239  0.24623776  1
  O  O31  1  0.83229250  0.24346474  0.80269026  1
