# generated using pymatgen
data_RbLiCrO4
_symmetry_space_group_name_H-M   'P 1'
_cell_length_a   5.49776660
_cell_length_b   5.49776660
_cell_length_c   9.33317425
_cell_angle_alpha   90.00000000
_cell_angle_beta   90.00000000
_cell_angle_gamma   120.00000000
_symmetry_Int_Tables_number   1
_chemical_formula_structural   RbLiCrO4
_chemical_formula_sum   'Rb2 Li2 Cr2 O8'
_cell_volume   244.30513924
_cell_formula_units_Z   2
loop_
 _symmetry_equiv_pos_site_id
 _symmetry_equiv_pos_as_xyz
  1  'x, y, z'
loop_
 _atom_site_type_symbol
 _atom_site_label
 _atom_site_symmetry_multiplicity
 _atom_site_fract_x
 _atom_site_fract_y
 _atom_site_fract_z
 _atom_site_occupancy
  Li  Li0  1  0.66666667  0.33333333  0.68032423  1
  Li  Li1  1  0.33333333  0.66666667  0.18032423  1
  O  O2  1  0.61123729  0.96220580  0.73420157  1
  O  O3  1  0.03779420  0.64903148  0.73420157  1
  O  O4  1  0.35096852  0.38876271  0.73420157  1
  O  O5  1  0.96220580  0.61123729  0.23420157  1
  O  O6  1  0.66666667  0.33333333  0.47000152  1
  O  O7  1  0.33333333  0.66666667  0.97000152  1
  O  O8  1  0.38876271  0.35096852  0.23420157  1
  O  O9  1  0.64903148  0.03779420  0.23420157  1
  Cr  Cr10  1  0.33333333  0.66666667  0.79133089  1
  Cr  Cr11  1  0.66666667  0.33333333  0.29133089  1
  Rb  Rb12  1  0.00000000  0.00000000  0.49713864  1
  Rb  Rb13  1  0.00000000  0.00000000  0.99713864  1
