# generated using pymatgen
data_Li7FeO6
_symmetry_space_group_name_H-M   'P 1'
_cell_length_a   5.54822369
_cell_length_b   5.64413815
_cell_length_c   5.58639857
_cell_angle_alpha   119.56756749
_cell_angle_beta   120.06151234
_cell_angle_gamma   60.66218563
_symmetry_Int_Tables_number   1
_chemical_formula_structural   Li7FeO6
_chemical_formula_sum   'Li7 Fe1 O6'
_cell_volume   124.65309998
_cell_formula_units_Z   1
loop_
 _symmetry_equiv_pos_site_id
 _symmetry_equiv_pos_as_xyz
  1  'x, y, z'
loop_
 _atom_site_type_symbol
 _atom_site_label
 _atom_site_symmetry_multiplicity
 _atom_site_fract_x
 _atom_site_fract_y
 _atom_site_fract_z
 _atom_site_occupancy
  Li  Li0  1  0.23071531  0.32750300  0.50493729  1
  Li  Li1  1  0.11590371  0.68465064  0.28285998  1
  Li  Li2  1  0.48776183  0.67334126  0.88289598  1
  Li  Li3  1  0.64430599  0.03787622  0.34669651  1
  Li  Li4  1  0.49537677  0.32263773  0.05561202  1
  Li  Li5  1  0.94651201  0.31869013  0.76420155  1
  Li  Li6  1  0.72134260  0.67409820  0.51486994  1
  Fe  Fe7  1  0.00064728  0.99695565  0.99925229  1
  O  O8  1  0.07571651  0.76226510  0.63723808  1
  O  O9  1  0.22783892  0.24007873  0.11993738  1
  O  O10  1  0.64826026  0.23496408  0.77054322  1
  O  O11  1  0.36729699  0.76214998  0.20043048  1
  O  O12  1  0.80182940  0.75678656  0.92258859  1
  O  O13  1  0.88221143  0.23271473  0.34946069  1
