# generated using pymatgen
data_B(HO)3
_symmetry_space_group_name_H-M   'P 1'
_cell_length_a   7.01544349
_cell_length_b   7.01544381
_cell_length_c   9.61715072
_cell_angle_alpha   90.00000000
_cell_angle_beta   90.00000000
_cell_angle_gamma   119.99999501
_symmetry_Int_Tables_number   1
_chemical_formula_structural   B(HO)3
_chemical_formula_sum   'B6 H18 O18'
_cell_volume   409.90890845
_cell_formula_units_Z   6
loop_
 _symmetry_equiv_pos_site_id
 _symmetry_equiv_pos_as_xyz
  1  'x, y, z'
loop_
 _atom_site_type_symbol
 _atom_site_label
 _atom_site_symmetry_multiplicity
 _atom_site_fract_x
 _atom_site_fract_y
 _atom_site_fract_z
 _atom_site_occupancy
  B  B0  1  0.18586438  0.64386106  0.29615547  1
  B  B1  1  0.45799668  0.81413562  0.62948947  1
  B  B2  1  0.35613894  0.54200332  0.96282247  1
  B  B3  1  0.51837492  0.31137926  0.30941212  1
  B  B4  1  0.79300434  0.48162508  0.64274512  1
  B  B5  1  0.68862074  0.20699566  0.97607912  1
  H  H6  1  0.05315276  0.78608346  0.63846645  1
  H  H7  1  0.14286111  0.90505181  0.30017862  1
  H  H8  1  0.31282907  0.80396800  0.96543249  1
  H  H9  1  0.19603200  0.50886106  0.63209949  1
  H  H10  1  0.09494819  0.23780931  0.96684562  1
  H  H11  1  0.21391654  0.26706930  0.30513345  1
  H  H12  1  0.49113894  0.68717093  0.29876549  1
  H  H13  1  0.73293070  0.94684724  0.97179945  1
  H  H14  1  0.48773444  0.43711540  0.64133278  1
  H  H15  1  0.76219069  0.85713889  0.63351162  1
  H  H16  1  0.38422007  0.16409044  0.96356073  1
  H  H17  1  0.66154981  0.58670182  0.96331789  1
  H  H18  1  0.41329818  0.07484799  0.62998389  1
  H  H19  1  0.77987037  0.61577993  0.29689473  1
  H  H20  1  0.56288460  0.05061904  0.30799978  1
  H  H21  1  0.94938096  0.51226556  0.97466678  1
  H  H22  1  0.83590956  0.22012963  0.63022773  1
  H  H23  1  0.92515201  0.33845019  0.29665089  1
  O  O24  1  0.05643875  0.73993396  0.29583631  1
  O  O25  1  0.32787137  0.91092201  0.62778737  1
  O  O26  1  0.08907799  0.41694936  0.29445337  1
  O  O27  1  0.22691080  0.63931019  0.96594376  1
  O  O28  1  0.41239939  0.77308920  0.29927776  1
  O  O29  1  0.36068981  0.58760061  0.63261076  1
  O  O30  1  0.26006604  0.31650478  0.96250331  1
  O  O31  1  0.29293197  0.18144392  0.31328261  1
  O  O32  1  0.68349522  0.94356125  0.62917031  1
  O  O33  1  0.58305064  0.67212863  0.96112037  1
  O  O34  1  0.61503814  0.53724475  0.30332148  1
  O  O35  1  0.56636490  0.35088547  0.64365991  1
  O  O36  1  0.46275525  0.07779340  0.96998848  1
  O  O37  1  0.88851195  0.70706803  0.64661661  1
  O  O38  1  0.64911453  0.21547943  0.31032691  1
  O  O39  1  0.78452057  0.43363510  0.97699391  1
  O  O40  1  0.92220660  0.38496186  0.63665548  1
  O  O41  1  0.81855608  0.11148805  0.97994961  1
