# generated using pymatgen
data_LuCuPbSe3
_symmetry_space_group_name_H-M   'P 1'
_cell_length_a   10.44859870
_cell_length_b   7.09375415
_cell_length_c   13.59646472
_cell_angle_alpha   16.53233034
_cell_angle_beta   89.71114559
_cell_angle_gamma   89.75161783
_symmetry_Int_Tables_number   1
_chemical_formula_structural   LuCuPbSe3
_chemical_formula_sum   'Lu2 Cu2 Pb2 Se6'
_cell_volume   286.76243220
_cell_formula_units_Z   2
loop_
 _symmetry_equiv_pos_site_id
 _symmetry_equiv_pos_as_xyz
  1  'x, y, z'
loop_
 _atom_site_type_symbol
 _atom_site_label
 _atom_site_symmetry_multiplicity
 _atom_site_fract_x
 _atom_site_fract_y
 _atom_site_fract_z
 _atom_site_occupancy
  Lu  Lu0  1  0.49446188  0.50056491  0.49875556  1
  Lu  Lu1  1  0.99534872  0.49940353  0.50149603  1
  Cu  Cu2  1  0.24496154  0.49975751  0.96692146  1
  Cu  Cu3  1  0.74519382  0.50021745  0.03305610  1
  Pb  Pb4  1  0.23635796  0.50034824  0.25462517  1
  Pb  Pb5  1  0.73591924  0.50059209  0.74471932  1
  Se  Se6  1  0.55401962  0.49887459  0.13972316  1
  Se  Se7  1  0.93470329  0.49824914  0.14066879  1
  Se  Se8  1  0.74685184  0.50027693  0.42306612  1
  Se  Se9  1  0.24457255  0.50031355  0.57744827  1
  Se  Se10  1  0.43567573  0.50010767  0.86075790  1
  Se  Se11  1  0.05523881  0.50128240  0.86033312  1
