# generated using pymatgen
data_LiFeSiO4
_symmetry_space_group_name_H-M   'P 1'
_cell_length_a   5.47677562
_cell_length_b   8.25994387
_cell_length_c   5.47677562
_cell_angle_alpha   99.69777860
_cell_angle_beta   53.15766082
_cell_angle_gamma   84.43211892
_symmetry_Int_Tables_number   1
_chemical_formula_structural   LiFeSiO4
_chemical_formula_sum   'Li2 Fe2 Si2 O8'
_cell_volume   189.18558094
_cell_formula_units_Z   2
loop_
 _symmetry_equiv_pos_site_id
 _symmetry_equiv_pos_as_xyz
  1  'x, y, z'
loop_
 _atom_site_type_symbol
 _atom_site_label
 _atom_site_symmetry_multiplicity
 _atom_site_fract_x
 _atom_site_fract_y
 _atom_site_fract_z
 _atom_site_occupancy
  Li  Li0  1  0.75247975  0.13260906  0.59647959  1
  Li  Li1  1  0.96387053  0.63260906  0.88508881  1
  Fe  Fe2  1  0.32491929  0.49552630  0.00319515  1
  Fe  Fe3  1  0.00766885  0.99552630  0.82044559  1
  Si  Si4  1  0.39078702  0.25278562  0.39781024  1
  Si  Si5  1  0.64502462  0.75278562  0.64357264  1
  O  O6  1  0.41378006  0.30641345  0.10993151  1
  O  O7  1  0.72713440  0.12515130  0.25737122  1
  O  O8  1  0.11607516  0.15024890  0.57234022  1
  O  O9  1  0.31287933  0.42236638  0.66223906  1
  O  O10  1  0.30351806  0.80641345  0.72019251  1
  O  O11  1  0.63221992  0.62515130  0.85228571  1
  O  O12  1  0.92209132  0.65024890  0.26632406  1
  O  O13  1  0.73987268  0.92236638  0.73524571  1
