# generated using pymatgen
data_H5ClO2
_symmetry_space_group_name_H-M   'P 1'
_cell_length_a   4.05842625
_cell_length_b   6.74736735
_cell_length_c   12.14470698
_cell_angle_alpha   90.00000000
_cell_angle_beta   90.00000000
_cell_angle_gamma   100.91501087
_symmetry_Int_Tables_number   1
_chemical_formula_structural   H5ClO2
_chemical_formula_sum   'H20 Cl4 O8'
_cell_volume   326.55050250
_cell_formula_units_Z   4
loop_
 _symmetry_equiv_pos_site_id
 _symmetry_equiv_pos_as_xyz
  1  'x, y, z'
loop_
 _atom_site_type_symbol
 _atom_site_label
 _atom_site_symmetry_multiplicity
 _atom_site_fract_x
 _atom_site_fract_y
 _atom_site_fract_z
 _atom_site_occupancy
  H  H0  1  0.78762931  0.09230440  0.60237095  1
  H  H1  1  0.21237069  0.40769560  0.10237095  1
  H  H2  1  0.21237069  0.90769560  0.39762905  1
  H  H3  1  0.78762931  0.59230440  0.89762905  1
  H  H4  1  0.80240151  0.20022716  0.48317425  1
  H  H5  1  0.19759849  0.29977284  0.98317425  1
  H  H6  1  0.19759849  0.79977284  0.51682575  1
  H  H7  1  0.80240151  0.70022716  0.01682575  1
  H  H8  1  0.29639359  0.42342348  0.69631188  1
  H  H9  1  0.70360641  0.07657652  0.19631188  1
  H  H10  1  0.70360641  0.57657652  0.30368812  1
  H  H11  1  0.29639359  0.92342348  0.80368812  1
  H  H12  1  0.57590918  0.84242925  0.89944185  1
  H  H13  1  0.42409082  0.65757075  0.39944185  1
  H  H14  1  0.42409082  0.15757075  0.10055815  1
  H  H15  1  0.57590918  0.34242925  0.60055815  1
  H  H16  1  0.61565957  0.09078043  0.84865270  1
  H  H17  1  0.38434043  0.40921957  0.34865270  1
  H  H18  1  0.38434043  0.90921957  0.15134730  1
  H  H19  1  0.61565957  0.59078043  0.65134730  1
  O  O20  1  0.71435740  0.20127122  0.55944457  1
  O  O21  1  0.28564260  0.29872878  0.05944457  1
  O  O22  1  0.28564260  0.79872878  0.44055543  1
  O  O23  1  0.71435740  0.70127122  0.94055543  1
  O  O24  1  0.44535319  0.46644725  0.63117194  1
  O  O25  1  0.55464681  0.03355275  0.13117194  1
  O  O26  1  0.55464681  0.53355275  0.36882806  1
  O  O27  1  0.44535319  0.96644725  0.86882806  1
  Cl  Cl28  1  0.97254169  0.34186688  0.83008543  1
  Cl  Cl29  1  0.02745831  0.15813312  0.33008543  1
  Cl  Cl30  1  0.02745831  0.65813312  0.16991457  1
  Cl  Cl31  1  0.97254169  0.84186688  0.66991457  1
