# generated using pymatgen
data_Ba2TiOF6
_symmetry_space_group_name_H-M   'P 1'
_cell_length_a   7.32897905
_cell_length_b   7.47990097
_cell_length_c   7.47990003
_cell_angle_alpha   78.24440160
_cell_angle_beta   62.51077585
_cell_angle_gamma   62.51077796
_symmetry_Int_Tables_number   1
_chemical_formula_structural   Ba2TiOF6
_chemical_formula_sum   'Ba4 Ti2 O2 F12'
_cell_volume   322.66178772
_cell_formula_units_Z   2
loop_
 _symmetry_equiv_pos_site_id
 _symmetry_equiv_pos_as_xyz
  1  'x, y, z'
loop_
 _atom_site_type_symbol
 _atom_site_label
 _atom_site_symmetry_multiplicity
 _atom_site_fract_x
 _atom_site_fract_y
 _atom_site_fract_z
 _atom_site_occupancy
  Ba  Ba0  1  0.84377877  0.82280210  0.58075199  1
  Ba  Ba1  1  0.49931888  0.82671789  0.17256991  1
  Ba  Ba2  1  0.99931888  0.17256991  0.82671789  1
  Ba  Ba3  1  0.34377877  0.58075199  0.82280210  1
  Ti  Ti4  1  0.91379700  0.31990354  0.33276429  1
  Ti  Ti5  1  0.41379700  0.33276429  0.31990354  1
  O  O6  1  0.63570319  0.39358757  0.26878941  1
  O  O7  1  0.13570319  0.26878941  0.39358757  1
  F  F8  1  0.89187294  0.84444382  0.92697110  1
  F  F9  1  0.23599087  0.42661061  0.60083707  1
  F  F10  1  0.05064820  0.39497800  0.05839597  1
  F  F11  1  0.23549446  0.60257913  0.23849697  1
  F  F12  1  0.02013269  0.05201347  0.23900891  1
  F  F13  1  0.71636299  0.55434716  0.84523110  1
  F  F14  1  0.21636299  0.84523110  0.55434716  1
  F  F15  1  0.55064820  0.05839597  0.39497800  1
  F  F16  1  0.73549446  0.23849697  0.60257913  1
  F  F17  1  0.73599087  0.60083707  0.42661061  1
  F  F18  1  0.39187294  0.92697110  0.84444382  1
  F  F19  1  0.52013269  0.23900891  0.05201347  1
