# generated using pymatgen
data_PdCl2
_symmetry_space_group_name_H-M   'P 1'
_cell_length_a   8.62240100
_cell_length_b   8.62240100
_cell_length_c   8.62240100
_cell_angle_alpha   108.01460569
_cell_angle_beta   108.01460568
_cell_angle_gamma   108.01460562
_symmetry_Int_Tables_number   1
_chemical_formula_structural   PdCl2
_chemical_formula_sum   'Pd6 Cl12'
_cell_volume   518.37840473
_cell_formula_units_Z   6
loop_
 _symmetry_equiv_pos_site_id
 _symmetry_equiv_pos_as_xyz
  1  'x, y, z'
loop_
 _atom_site_type_symbol
 _atom_site_label
 _atom_site_symmetry_multiplicity
 _atom_site_fract_x
 _atom_site_fract_y
 _atom_site_fract_z
 _atom_site_occupancy
  Cl  Cl0  1  0.75136626  0.02610588  0.22251626  1
  Cl  Cl1  1  0.02610588  0.22251626  0.75136626  1
  Cl  Cl2  1  0.22251626  0.75136626  0.02610588  1
  Cl  Cl3  1  0.24863374  0.97389412  0.77748374  1
  Cl  Cl4  1  0.97389412  0.77748374  0.24863374  1
  Cl  Cl5  1  0.77748374  0.24863374  0.97389412  1
  Cl  Cl6  1  0.13615184  0.38501456  0.35898575  1
  Cl  Cl7  1  0.35898575  0.13615184  0.38501456  1
  Cl  Cl8  1  0.38501456  0.35898575  0.13615184  1
  Cl  Cl9  1  0.86384816  0.61498544  0.64101425  1
  Cl  Cl10  1  0.64101425  0.86384816  0.61498544  1
  Cl  Cl11  1  0.61498544  0.64101425  0.86384816  1
  Pd  Pd12  1  0.69311790  0.94392062  0.91761567  1
  Pd  Pd13  1  0.94392062  0.91761567  0.69311790  1
  Pd  Pd14  1  0.91761567  0.69311790  0.94392062  1
  Pd  Pd15  1  0.30688210  0.05607938  0.08238433  1
  Pd  Pd16  1  0.05607938  0.08238433  0.30688210  1
  Pd  Pd17  1  0.08238433  0.30688210  0.05607938  1
