# generated using pymatgen
data_SrCuN
_symmetry_space_group_name_H-M   'P 1'
_cell_length_a   5.39757069
_cell_length_b   9.07531703
_cell_length_c   13.26714759
_cell_angle_alpha   90.00000000
_cell_angle_beta   90.00000000
_cell_angle_gamma   90.00000000
_symmetry_Int_Tables_number   1
_chemical_formula_structural   SrCuN
_chemical_formula_sum   'Sr12 Cu12 N12'
_cell_volume   649.88678290
_cell_formula_units_Z   12
loop_
 _symmetry_equiv_pos_site_id
 _symmetry_equiv_pos_as_xyz
  1  'x, y, z'
loop_
 _atom_site_type_symbol
 _atom_site_label
 _atom_site_symmetry_multiplicity
 _atom_site_fract_x
 _atom_site_fract_y
 _atom_site_fract_z
 _atom_site_occupancy
  N  N0  1  0.74020801  0.58732988  0.41944599  1
  N  N1  1  0.71539847  0.74147257  0.75000000  1
  N  N2  1  0.21539847  0.75852743  0.25000000  1
  N  N3  1  0.78460153  0.24147257  0.75000000  1
  N  N4  1  0.28460153  0.25852743  0.25000000  1
  N  N5  1  0.75979199  0.08732988  0.41944599  1
  N  N6  1  0.25979199  0.41267012  0.58055401  1
  N  N7  1  0.74020801  0.58732988  0.08055401  1
  N  N8  1  0.24020801  0.91267012  0.91944599  1
  N  N9  1  0.24020801  0.91267012  0.58055401  1
  N  N10  1  0.25979199  0.41267012  0.91944599  1
  N  N11  1  0.75979199  0.08732988  0.08055401  1
  Cu  Cu12  1  0.51366695  0.17862885  0.15629406  1
  Cu  Cu13  1  0.00000000  0.00000000  0.50000000  1
  Cu  Cu14  1  0.50000000  0.50000000  0.50000000  1
  Cu  Cu15  1  0.50000000  0.50000000  0.00000000  1
  Cu  Cu16  1  0.00000000  0.00000000  0.00000000  1
  Cu  Cu17  1  0.01366695  0.32137115  0.84370594  1
  Cu  Cu18  1  0.98633305  0.67862885  0.15629406  1
  Cu  Cu19  1  0.48633305  0.82137115  0.65629406  1
  Cu  Cu20  1  0.48633305  0.82137115  0.84370594  1
  Cu  Cu21  1  0.51366695  0.17862885  0.34370594  1
  Cu  Cu22  1  0.01366695  0.32137115  0.65629406  1
  Cu  Cu23  1  0.98633305  0.67862885  0.34370594  1
  Sr  Sr24  1  0.00252072  0.02161065  0.25000000  1
  Sr  Sr25  1  0.50252072  0.47838935  0.75000000  1
  Sr  Sr26  1  0.49747928  0.52161065  0.25000000  1
  Sr  Sr27  1  0.99747928  0.97838935  0.75000000  1
  Sr  Sr28  1  0.01549507  0.33957763  0.08628612  1
  Sr  Sr29  1  0.51549507  0.16042237  0.91371388  1
  Sr  Sr30  1  0.98450493  0.66042237  0.91371388  1
  Sr  Sr31  1  0.48450493  0.83957763  0.41371388  1
  Sr  Sr32  1  0.98450493  0.66042237  0.58628612  1
  Sr  Sr33  1  0.01549507  0.33957763  0.41371388  1
  Sr  Sr34  1  0.51549507  0.16042237  0.58628612  1
  Sr  Sr35  1  0.48450493  0.83957763  0.08628612  1
