# generated using pymatgen
data_PH6NO4
_symmetry_space_group_name_H-M   'P 1'
_cell_length_a   7.22626789
_cell_length_b   8.06295791
_cell_length_c   8.11275184
_cell_angle_alpha   90.00000000
_cell_angle_beta   90.00000000
_cell_angle_gamma   90.00000000
_symmetry_Int_Tables_number   1
_chemical_formula_structural   PH6NO4
_chemical_formula_sum   'P4 H24 N4 O16'
_cell_volume   472.69024729
_cell_formula_units_Z   4
loop_
 _symmetry_equiv_pos_site_id
 _symmetry_equiv_pos_as_xyz
  1  'x, y, z'
loop_
 _atom_site_type_symbol
 _atom_site_label
 _atom_site_symmetry_multiplicity
 _atom_site_fract_x
 _atom_site_fract_y
 _atom_site_fract_z
 _atom_site_occupancy
  P  P0  1  0.49510393  0.03741078  0.45067906  1
  P  P1  1  0.00489607  0.96258922  0.95067906  1
  P  P2  1  0.50489607  0.53741078  0.04932094  1
  P  P3  1  0.99510393  0.46258922  0.54932094  1
  H  H4  1  0.75151066  0.70109180  0.11002908  1
  H  H5  1  0.84221524  0.96031001  0.41317517  1
  H  H6  1  0.24848934  0.20109180  0.38997092  1
  H  H7  1  0.97994374  0.86078283  0.55064743  1
  H  H8  1  0.82671570  0.58299110  0.34532294  1
  H  H9  1  0.04217366  0.56755501  0.93737367  1
  H  H10  1  0.42018133  0.01681805  0.90960568  1
  H  H11  1  0.74848934  0.29890820  0.61002908  1
  H  H12  1  0.17328430  0.08299110  0.15467706  1
  H  H13  1  0.15778476  0.46031001  0.08682483  1
  H  H14  1  0.95782634  0.06755501  0.56262633  1
  H  H15  1  0.52005626  0.13921717  0.05064743  1
  H  H16  1  0.07981867  0.98318195  0.40960568  1
  H  H17  1  0.54217366  0.93244499  0.06262633  1
  H  H18  1  0.65778476  0.03968999  0.91317517  1
  H  H19  1  0.34221524  0.53968999  0.58682483  1
  H  H20  1  0.47994374  0.63921717  0.44935257  1
  H  H21  1  0.67328430  0.41700890  0.84532294  1
  H  H22  1  0.92018133  0.48318195  0.09039432  1
  H  H23  1  0.25151066  0.79890820  0.88997092  1
  H  H24  1  0.57981867  0.51681805  0.59039432  1
  H  H25  1  0.32671570  0.91700890  0.65467706  1
  H  H26  1  0.02005626  0.36078283  0.94935257  1
  H  H27  1  0.45782634  0.43244499  0.43737367  1
  N  N28  1  0.96553369  0.96794578  0.48369302  1
  N  N29  1  0.46553369  0.53205422  0.51630698  1
  N  N30  1  0.03446631  0.46794578  0.01630698  1
  N  N31  1  0.53446631  0.03205422  0.98369302  1
  O  O32  1  0.58717237  0.39000007  0.93617973  1
  O  O33  1  0.81535020  0.39931431  0.65495644  1
  O  O34  1  0.08717237  0.10999993  0.06382027  1
  O  O35  1  0.62320006  0.95111283  0.33201913  1
  O  O36  1  0.06709759  0.32009211  0.44718855  1
  O  O37  1  0.12320006  0.54888717  0.66798087  1
  O  O38  1  0.68464980  0.60068569  0.15495644  1
  O  O39  1  0.31535020  0.10068569  0.34504356  1
  O  O40  1  0.37679994  0.45111283  0.16798087  1
  O  O41  1  0.43290241  0.67990789  0.94718855  1
  O  O42  1  0.87679994  0.04888717  0.83201913  1
  O  O43  1  0.18464980  0.89931431  0.84504356  1
  O  O44  1  0.56709759  0.17990789  0.55281145  1
  O  O45  1  0.91282763  0.60999993  0.43617973  1
  O  O46  1  0.93290241  0.82009211  0.05281145  1
  O  O47  1  0.41282763  0.89000007  0.56382027  1
