# generated using pymatgen
data_Ho2Cu2O5
_symmetry_space_group_name_H-M   'P 1'
_cell_length_a   3.50962934
_cell_length_b   10.88107360
_cell_length_c   12.51726361
_cell_angle_alpha   90.00000000
_cell_angle_beta   90.00000000
_cell_angle_gamma   90.00000000
_symmetry_Int_Tables_number   1
_chemical_formula_structural   Ho2Cu2O5
_chemical_formula_sum   'Ho8 Cu8 O20'
_cell_volume   478.01596144
_cell_formula_units_Z   4
loop_
 _symmetry_equiv_pos_site_id
 _symmetry_equiv_pos_as_xyz
  1  'x, y, z'
loop_
 _atom_site_type_symbol
 _atom_site_label
 _atom_site_symmetry_multiplicity
 _atom_site_fract_x
 _atom_site_fract_y
 _atom_site_fract_z
 _atom_site_occupancy
  O  O0  1  0.27260533  0.92306295  0.02588442  1
  O  O1  1  0.72739467  0.07693705  0.52588442  1
  O  O2  1  0.22739467  0.42306295  0.02588442  1
  O  O3  1  0.77260533  0.57693705  0.52588442  1
  O  O4  1  0.72459175  0.92848152  0.23535601  1
  O  O5  1  0.27540825  0.07151848  0.73535601  1
  O  O6  1  0.77540825  0.42848152  0.23535601  1
  O  O7  1  0.22459175  0.57151848  0.73535601  1
  O  O8  1  0.15525094  0.62471945  0.33334165  1
  O  O9  1  0.84474906  0.37528055  0.83334165  1
  O  O10  1  0.34474906  0.12471945  0.33334165  1
  O  O11  1  0.65525094  0.87528055  0.83334165  1
  O  O12  1  0.78099209  0.82206197  0.43216153  1
  O  O13  1  0.21900791  0.17793803  0.93216153  1
  O  O14  1  0.71900791  0.32206197  0.43216153  1
  O  O15  1  0.28099209  0.67793803  0.93216153  1
  O  O16  1  0.27503158  0.82669037  0.64130673  1
  O  O17  1  0.72496842  0.17330963  0.14130673  1
  O  O18  1  0.22496842  0.32669037  0.64130673  1
  O  O19  1  0.77503158  0.67330963  0.14130673  1
  Cu  Cu20  1  0.84370195  0.76191385  0.28056528  1
  Cu  Cu21  1  0.15629805  0.23808615  0.78056528  1
  Cu  Cu22  1  0.65629805  0.26191385  0.28056528  1
  Cu  Cu23  1  0.34370195  0.73808615  0.78056528  1
  Cu  Cu24  1  0.83973274  0.48847719  0.38652215  1
  Cu  Cu25  1  0.16026726  0.51152281  0.88652215  1
  Cu  Cu26  1  0.66026726  0.98847719  0.38652215  1
  Cu  Cu27  1  0.33973274  0.01152281  0.88652215  1
  Ho  Ho28  1  0.27751054  0.54267170  0.16946377  1
  Ho  Ho29  1  0.72248946  0.45732830  0.66946377  1
  Ho  Ho30  1  0.22248946  0.04267170  0.16946377  1
  Ho  Ho31  1  0.77751054  0.95732830  0.66946377  1
  Ho  Ho32  1  0.27882811  0.70753371  0.49709846  1
  Ho  Ho33  1  0.72117189  0.29246629  0.99709846  1
  Ho  Ho34  1  0.22117189  0.20753371  0.49709846  1
  Ho  Ho35  1  0.77882811  0.79246629  0.99709846  1
