# generated using pymatgen
data_Sr3Fe2O5
_symmetry_space_group_name_H-M   'P 1'
_cell_length_a   3.53529489
_cell_length_b   4.02824764
_cell_length_c   10.95910729
_cell_angle_alpha   100.58847925
_cell_angle_beta   99.28213765
_cell_angle_gamma   90.00033094
_symmetry_Int_Tables_number   1
_chemical_formula_structural   Sr3Fe2O5
_chemical_formula_sum   'Sr3 Fe2 O5'
_cell_volume   151.33215507
_cell_formula_units_Z   1
loop_
 _symmetry_equiv_pos_site_id
 _symmetry_equiv_pos_as_xyz
  1  'x, y, z'
loop_
 _atom_site_type_symbol
 _atom_site_label
 _atom_site_symmetry_multiplicity
 _atom_site_fract_x
 _atom_site_fract_y
 _atom_site_fract_z
 _atom_site_occupancy
  O  O0  1  0.19321083  0.19315423  0.38648545  1
  O  O1  1  0.80679295  0.80684381  0.61351580  1
  O  O2  1  0.09618920  0.59616419  0.19239921  1
  O  O3  1  0.90381552  0.40383810  0.80760173  1
  O  O4  1  0.00000369  -0.00000162  -0.00000083  1
  Fe  Fe5  1  0.09685677  0.09693515  0.19389394  1
  Fe  Fe6  1  0.90312678  0.90306644  0.80610228  1
  Sr  Sr7  1  0.31165821  0.31164562  0.62328532  1
  Sr  Sr8  1  0.68834623  0.68835289  0.37671463  1
  Sr  Sr9  1  0.50000295  0.49999981  0.00000139  1
