# generated using pymatgen
data_Ga(MoSe2)4
_symmetry_space_group_name_H-M   'P 1'
_cell_length_a   7.23971421
_cell_length_b   7.23971447
_cell_length_c   7.23971475
_cell_angle_alpha   60.81956335
_cell_angle_beta   60.81956215
_cell_angle_gamma   60.81956236
_symmetry_Int_Tables_number   1
_chemical_formula_structural   Ga(MoSe2)4
_chemical_formula_sum   'Ga1 Mo4 Se8'
_cell_volume   273.27700278
_cell_formula_units_Z   1
loop_
 _symmetry_equiv_pos_site_id
 _symmetry_equiv_pos_as_xyz
  1  'x, y, z'
loop_
 _atom_site_type_symbol
 _atom_site_label
 _atom_site_symmetry_multiplicity
 _atom_site_fract_x
 _atom_site_fract_y
 _atom_site_fract_z
 _atom_site_occupancy
  Ga  Ga0  1  0.00048931  0.00048931  0.00048931  1
  Mo  Mo1  1  0.80440948  0.39925459  0.39925459  1
  Mo  Mo2  1  0.39925459  0.39925459  0.80440948  1
  Mo  Mo3  1  0.40574589  0.40574589  0.40574589  1
  Mo  Mo4  1  0.39925459  0.80440948  0.39925459  1
  Se  Se5  1  0.14032374  0.59005736  0.14032374  1
  Se  Se6  1  0.64024703  0.64024703  0.09314512  1
  Se  Se7  1  0.14032374  0.14032374  0.59005736  1
  Se  Se8  1  0.59005736  0.14032374  0.14032374  1
  Se  Se9  1  0.63558613  0.63558613  0.63558613  1
  Se  Se10  1  0.13951598  0.13951598  0.13951598  1
  Se  Se11  1  0.09314512  0.64024703  0.64024703  1
  Se  Se12  1  0.64024703  0.09314512  0.64024703  1
