# generated using pymatgen
data_Li3VF7
_symmetry_space_group_name_H-M   'P 1'
_cell_length_a   5.80731666
_cell_length_b   6.13430596
_cell_length_c   5.80731747
_cell_angle_alpha   58.11923910
_cell_angle_beta   63.76151568
_cell_angle_gamma   90.00000020
_symmetry_Int_Tables_number   1
_chemical_formula_structural   Li3VF7
_chemical_formula_sum   'Li3 V1 F7'
_cell_volume   149.98293045
_cell_formula_units_Z   1
loop_
 _symmetry_equiv_pos_site_id
 _symmetry_equiv_pos_as_xyz
  1  'x, y, z'
loop_
 _atom_site_type_symbol
 _atom_site_label
 _atom_site_symmetry_multiplicity
 _atom_site_fract_x
 _atom_site_fract_y
 _atom_site_fract_z
 _atom_site_occupancy
  Li  Li0  1  0.37654221  0.10972813  0.26681408  1
  Li  Li1  1  0.37654221  0.62345779  0.26681408  1
  Li  Li2  1  0.89027187  0.62345779  0.75308441  1
  V  V3  1  0.00173072  0.99826928  0.00346144  1
  F  F4  1  0.22005152  0.21889967  0.00115185  1
  F  F5  1  0.22005152  0.77994848  0.00115185  1
  F  F6  1  0.22258026  0.22990773  0.54018454  1
  F  F7  1  0.24734583  0.75265417  0.49469266  1
  F  F8  1  0.77009227  0.22990773  0.99267253  1
  F  F9  1  0.77009227  0.77741974  0.99267253  1
  F  F10  1  0.78110033  0.77994848  0.44010204  1
