# generated using pymatgen
data_AsF3
_symmetry_space_group_name_H-M   'P 1'
_cell_length_a   5.37991364
_cell_length_b   7.11794183
_cell_length_c   7.46926460
_cell_angle_alpha   90.00000000
_cell_angle_beta   90.00000000
_cell_angle_gamma   90.00000000
_symmetry_Int_Tables_number   1
_chemical_formula_structural   AsF3
_chemical_formula_sum   'As4 F12'
_cell_volume   286.02736384
_cell_formula_units_Z   4
loop_
 _symmetry_equiv_pos_site_id
 _symmetry_equiv_pos_as_xyz
  1  'x, y, z'
loop_
 _atom_site_type_symbol
 _atom_site_label
 _atom_site_symmetry_multiplicity
 _atom_site_fract_x
 _atom_site_fract_y
 _atom_site_fract_z
 _atom_site_occupancy
  F  F0  1  0.19325889  0.32054348  0.35325545  1
  F  F1  1  0.80674111  0.67945652  0.85325545  1
  F  F2  1  0.30674111  0.82054348  0.35325545  1
  F  F3  1  0.69325889  0.17945652  0.85325545  1
  F  F4  1  0.09008903  0.06463034  0.69100454  1
  F  F5  1  0.90991097  0.93536966  0.19100454  1
  F  F6  1  0.40991097  0.56463034  0.69100454  1
  F  F7  1  0.59008903  0.43536966  0.19100454  1
  F  F8  1  0.12328405  0.30607895  0.95280770  1
  F  F9  1  0.87671595  0.69392105  0.45280770  1
  F  F10  1  0.37671595  0.80607895  0.95280770  1
  F  F11  1  0.62328405  0.19392105  0.45280770  1
  As  As12  1  0.45658560  0.21558632  0.24813231  1
  As  As13  1  0.54341440  0.78441368  0.74813231  1
  As  As14  1  0.04341440  0.71558632  0.24813231  1
  As  As15  1  0.95658560  0.28441368  0.74813231  1
