# generated using pymatgen
data_NaH9O5
_symmetry_space_group_name_H-M   'P 1'
_cell_length_a   7.96385741
_cell_length_b   8.07503792
_cell_length_c   9.50215301
_cell_angle_alpha   63.90201900
_cell_angle_beta   116.53308746
_cell_angle_gamma   149.71342954
_symmetry_Int_Tables_number   1
_chemical_formula_structural   NaH9O5
_chemical_formula_sum   'Na2 H18 O10'
_cell_volume   273.72534325
_cell_formula_units_Z   2
loop_
 _symmetry_equiv_pos_site_id
 _symmetry_equiv_pos_as_xyz
  1  'x, y, z'
loop_
 _atom_site_type_symbol
 _atom_site_label
 _atom_site_symmetry_multiplicity
 _atom_site_fract_x
 _atom_site_fract_y
 _atom_site_fract_z
 _atom_site_occupancy
  Na  Na0  1  0.57257633  0.46177578  0.87437141  1
  Na  Na1  1  0.46123947  0.54776132  0.18435757  1
  H  H2  1  0.79114922  0.18853651  0.58980693  1
  H  H3  1  0.49756084  0.05765365  0.62434411  1
  H  H4  1  0.12159943  0.56628319  0.37069779  1
  H  H5  1  0.75522360  0.28819422  0.82675980  1
  H  H6  1  0.96187119  0.46798102  0.98315686  1
  H  H7  1  0.45682538  0.93338062  0.02224617  1
  H  H8  1  0.26577820  0.73701943  0.17594628  1
  H  H9  1  0.16992555  0.42923285  0.83189894  1
  H  H10  1  0.52831217  0.80547278  0.81091891  1
  H  H11  1  0.47032465  0.16384282  0.21840917  1
  H  H12  1  0.84413468  0.53927621  0.20963413  1
  H  H13  1  0.10255723  0.94909385  0.68974184  1
  H  H14  1  0.95521783  0.02630939  0.62880096  1
  H  H15  1  0.06540690  0.96703107  0.25921064  1
  H  H16  1  0.90125079  0.08930154  0.37555687  1
  H  H17  1  0.10177935  0.94926972  0.44819703  1
  H  H18  1  0.01786391  0.65657830  0.60254066  1
  H  H19  1  0.60698730  0.97336947  0.37754991  1
  O  O20  1  0.73707061  0.17910138  0.67007106  1
  O  O21  1  0.23890819  0.77021808  0.30107643  1
  O  O22  1  0.72977919  0.29924915  0.91264385  1
  O  O23  1  0.29493177  0.71463956  0.09026236  1
  O  O24  1  0.40575901  0.59705982  0.88143614  1
  O  O25  1  0.60413785  0.38420486  0.16143178  1
  O  O26  1  0.04289385  0.99069208  0.72862696  1
  O  O27  1  0.02321643  0.99892234  0.31912049  1
  O  O28  1  0.18356889  0.89022793  0.58961649  1
  O  O29  1  0.84163016  0.10999404  0.43097143  1
