# generated using pymatgen
data_Ba2In2O5
_symmetry_space_group_name_H-M   'P 1'
_cell_length_a   6.05647779
_cell_length_b   6.23725211
_cell_length_c   9.50185485
_cell_angle_alpha   109.16030795
_cell_angle_beta   108.58431032
_cell_angle_gamma   90.00000000
_symmetry_Int_Tables_number   1
_chemical_formula_structural   Ba2In2O5
_chemical_formula_sum   'Ba4 In4 O10'
_cell_volume   319.17557109
_cell_formula_units_Z   2
loop_
 _symmetry_equiv_pos_site_id
 _symmetry_equiv_pos_as_xyz
  1  'x, y, z'
loop_
 _atom_site_type_symbol
 _atom_site_label
 _atom_site_symmetry_multiplicity
 _atom_site_fract_x
 _atom_site_fract_y
 _atom_site_fract_z
 _atom_site_occupancy
  O  O0  1  0.10145917  0.87959131  0.50000000  1
  O  O1  1  0.60145917  0.12040869  0.50000000  1
  O  O2  1  0.31341775  0.41719715  0.72432915  1
  O  O3  1  0.58908860  0.58280285  0.27567085  1
  O  O4  1  0.81341775  0.80713199  0.72432915  1
  O  O5  1  0.08908860  0.19286801  0.27567085  1
  O  O6  1  0.23722144  0.76296363  0.01638839  1
  O  O7  1  0.22083305  0.23703637  0.98361161  1
  O  O8  1  0.72083305  0.24657524  0.98361161  1
  O  O9  1  0.73722144  0.75342476  0.01638839  1
  In  In10  1  0.75692498  0.81659745  0.50000000  1
  In  In11  1  0.25692498  0.18340255  0.50000000  1
  In  In12  1  0.47472080  0.50000000  1.00000000  1
  In  In13  1  0.97472080  1.00000000  1.00000000  1
  Ba  Ba14  1  0.87082338  0.40892035  0.78201256  1
  Ba  Ba15  1  0.08881082  0.59107965  0.21798744  1
  Ba  Ba16  1  0.37082338  0.87309222  0.78201256  1
  Ba  Ba17  1  0.58881082  0.12690778  0.21798744  1
