# generated using pymatgen
data_ClF
_symmetry_space_group_name_H-M   'P 1'
_cell_length_a   3.73940138
_cell_length_b   6.56305622
_cell_length_c   7.33865863
_cell_angle_alpha   106.18213794
_cell_angle_beta   90.00000000
_cell_angle_gamma   90.00000000
_symmetry_Int_Tables_number   1
_chemical_formula_structural   ClF
_chemical_formula_sum   'Cl4 F4'
_cell_volume   172.96900230
_cell_formula_units_Z   4
loop_
 _symmetry_equiv_pos_site_id
 _symmetry_equiv_pos_as_xyz
  1  'x, y, z'
loop_
 _atom_site_type_symbol
 _atom_site_label
 _atom_site_symmetry_multiplicity
 _atom_site_fract_x
 _atom_site_fract_y
 _atom_site_fract_z
 _atom_site_occupancy
  F  F0  1  0.21955620  0.36761427  0.34681628  1
  F  F1  1  0.71955620  0.63238573  0.15318372  1
  F  F2  1  0.78044380  0.63238573  0.65318372  1
  F  F3  1  0.28044380  0.36761427  0.84681628  1
  Cl  Cl4  1  0.48988188  0.15291261  0.29015324  1
  Cl  Cl5  1  0.98988188  0.84708739  0.20984676  1
  Cl  Cl6  1  0.51011812  0.84708739  0.70984676  1
  Cl  Cl7  1  0.01011812  0.15291261  0.79015324  1
