# generated using pymatgen
data_Li3MnF7
_symmetry_space_group_name_H-M   'P 1'
_cell_length_a   5.74375215
_cell_length_b   6.11739784
_cell_length_c   6.11739820
_cell_angle_alpha   119.99999803
_cell_angle_beta   122.17630466
_cell_angle_gamma   90.00000000
_symmetry_Int_Tables_number   1
_chemical_formula_structural   Li3MnF7
_chemical_formula_sum   'Li3 Mn1 F7'
_cell_volume   146.79653079
_cell_formula_units_Z   1
loop_
 _symmetry_equiv_pos_site_id
 _symmetry_equiv_pos_as_xyz
  1  'x, y, z'
loop_
 _atom_site_type_symbol
 _atom_site_label
 _atom_site_symmetry_multiplicity
 _atom_site_fract_x
 _atom_site_fract_y
 _atom_site_fract_z
 _atom_site_occupancy
  Li  Li0  1  0.65021297  0.37678356  0.75356812  1
  Li  Li1  1  0.65021297  0.37678356  0.27342841  1
  Li  Li2  1  0.65021297  0.89664485  0.27342841  1
  Mn  Mn3  1  0.99548991  0.99849630  0.99699361  1
  F  F4  1  0.22085247  0.21534544  0.43069088  1
  F  F5  1  0.22085247  0.21534544  0.00550703  1
  F  F6  1  0.22085247  0.79016159  0.00550703  1
  F  F7  1  0.75868366  0.25289422  0.50578944  1
  F  F8  1  0.75441804  0.77099120  0.54198339  1
  F  F9  1  0.75441804  0.21243564  0.98342684  1
  F  F10  1  0.75441804  0.77099120  0.98342684  1
