# generated using pymatgen
data_PHF4
_symmetry_space_group_name_H-M   'P 1'
_cell_length_a   4.70198274
_cell_length_b   8.20117776
_cell_length_c   8.85074680
_cell_angle_alpha   90.00000000
_cell_angle_beta   90.55702119
_cell_angle_gamma   90.00000000
_symmetry_Int_Tables_number   1
_chemical_formula_structural   PHF4
_chemical_formula_sum   'P4 H4 F16'
_cell_volume   341.28456665
_cell_formula_units_Z   4
loop_
 _symmetry_equiv_pos_site_id
 _symmetry_equiv_pos_as_xyz
  1  'x, y, z'
loop_
 _atom_site_type_symbol
 _atom_site_label
 _atom_site_symmetry_multiplicity
 _atom_site_fract_x
 _atom_site_fract_y
 _atom_site_fract_z
 _atom_site_occupancy
  H  H0  1  0.77798084  0.38348950  0.61398161  1
  H  H1  1  0.72201916  0.88348950  0.88601839  1
  H  H2  1  0.22201916  0.61651050  0.38601839  1
  H  H3  1  0.27798084  0.11651050  0.11398161  1
  F  F4  1  0.24749502  0.34418419  0.23089743  1
  F  F5  1  0.25250498  0.84418419  0.26910257  1
  F  F6  1  0.75250498  0.65581581  0.76910257  1
  F  F7  1  0.74749502  0.15581581  0.73089743  1
  F  F8  1  0.73086158  0.08709543  0.11530699  1
  F  F9  1  0.76913842  0.58709543  0.38469301  1
  F  F10  1  0.26913842  0.91290457  0.88469301  1
  F  F11  1  0.23086158  0.41290457  0.61530699  1
  F  F12  1  0.60890138  0.20118596  0.33880484  1
  F  F13  1  0.89109862  0.70118596  0.16119516  1
  F  F14  1  0.39109862  0.79881404  0.66119516  1
  F  F15  1  0.10890138  0.29881404  0.83880484  1
  F  F16  1  0.63229453  0.35538767  0.07787647  1
  F  F17  1  0.86770547  0.85538767  0.42212353  1
  F  F18  1  0.36770547  0.64461233  0.92212353  1
  F  F19  1  0.13229453  0.14461233  0.57787647  1
  P  P20  1  0.99124592  0.28285094  0.67307359  1
  P  P21  1  0.50875408  0.78285094  0.82692641  1
  P  P22  1  0.00875408  0.71714906  0.32692641  1
  P  P23  1  0.49124592  0.21714906  0.17307359  1
