# generated using pymatgen
data_H8S(NO2)2
_symmetry_space_group_name_H-M   'P 1'
_cell_length_a   6.06063800
_cell_length_b   8.22217843
_cell_length_c   10.80150098
_cell_angle_alpha   90.00000000
_cell_angle_beta   90.00000000
_cell_angle_gamma   90.00000000
_symmetry_Int_Tables_number   1
_chemical_formula_structural   H8S(NO2)2
_chemical_formula_sum   'H32 S4 N8 O16'
_cell_volume   538.25658429
_cell_formula_units_Z   4
loop_
 _symmetry_equiv_pos_site_id
 _symmetry_equiv_pos_as_xyz
  1  'x, y, z'
loop_
 _atom_site_type_symbol
 _atom_site_label
 _atom_site_symmetry_multiplicity
 _atom_site_fract_x
 _atom_site_fract_y
 _atom_site_fract_z
 _atom_site_occupancy
  H  H0  1  0.42057129  0.45466764  0.83587439  1
  H  H1  1  0.92057129  0.54533236  0.16412561  1
  H  H2  1  0.92057129  0.04533236  0.33587439  1
  H  H3  1  0.42057129  0.95466764  0.66412561  1
  H  H4  1  0.14891645  0.39550115  0.83839002  1
  H  H5  1  0.64891645  0.60449885  0.16160998  1
  H  H6  1  0.64891645  0.10449885  0.33839002  1
  H  H7  1  0.14891645  0.89550115  0.66160998  1
  H  H8  1  0.25479253  0.49113739  0.71211319  1
  H  H9  1  0.75479253  0.50886261  0.28788681  1
  H  H10  1  0.75479253  0.00886261  0.21211319  1
  H  H11  1  0.25479253  0.99113739  0.78788681  1
  H  H12  1  0.22152117  0.59605930  0.84659746  1
  H  H13  1  0.72152117  0.40394070  0.15340254  1
  H  H14  1  0.20114844  0.26032779  0.17790795  1
  H  H15  1  0.72152117  0.90394070  0.34659746  1
  H  H16  1  0.41043977  0.19109141  0.08731384  1
  H  H17  1  0.91043977  0.80890859  0.91268616  1
  H  H18  1  0.91043977  0.30890859  0.58731384  1
  H  H19  1  0.41043977  0.69109141  0.41268616  1
  H  H20  1  0.14844579  0.20550457  0.02861710  1
  H  H21  1  0.64844579  0.79449543  0.97138290  1
  H  H22  1  0.64844579  0.29449543  0.52861710  1
  H  H23  1  0.14844579  0.70550457  0.47138290  1
  H  H24  1  0.20686402  0.06097931  0.13535873  1
  H  H25  1  0.70686402  0.93902069  0.86464127  1
  H  H26  1  0.70686402  0.43902069  0.63535873  1
  H  H27  1  0.20686402  0.56097931  0.36464127  1
  H  H28  1  0.20114844  0.76032779  0.32209205  1
  H  H29  1  0.70114844  0.23967221  0.67790795  1
  H  H30  1  0.70114844  0.73967221  0.82209205  1
  H  H31  1  0.22152117  0.09605930  0.65340254  1
  N  N32  1  0.25988863  0.48402188  0.80689801  1
  N  N33  1  0.75988863  0.51597812  0.19310199  1
  N  N34  1  0.75988863  0.01597812  0.30689801  1
  N  N35  1  0.25988863  0.98402188  0.69310199  1
  N  N36  1  0.24273525  0.17999159  0.10777316  1
  N  N37  1  0.74273525  0.82000841  0.89222684  1
  N  N38  1  0.74273525  0.32000841  0.60777316  1
  N  N39  1  0.24273525  0.67999159  0.39222684  1
  O  O40  1  0.48889473  0.76653066  0.10213860  1
  O  O41  1  0.98889473  0.23346934  0.89786140  1
  O  O42  1  0.98889473  0.73346934  0.60213860  1
  O  O43  1  0.48889473  0.26653066  0.39786140  1
  O  O44  1  0.11625925  0.85190665  0.15700386  1
  O  O45  1  0.61625925  0.14809335  0.84299614  1
  O  O46  1  0.61625925  0.64809335  0.65700386  1
  O  O47  1  0.11625925  0.35190665  0.34299614  1
  O  O48  1  0.20454287  0.78323471  0.94179166  1
  O  O49  1  0.70454287  0.21676529  0.05820834  1
  O  O50  1  0.70454287  0.71676529  0.44179166  1
  O  O51  1  0.20454287  0.28323471  0.55820834  1
  O  O52  1  0.18633099  0.56980892  0.10006215  1
  O  O53  1  0.68633099  0.43019108  0.89993785  1
  O  O54  1  0.68633099  0.93019108  0.60006215  1
  O  O55  1  0.18633099  0.06980892  0.39993785  1
  S  S56  1  0.24764880  0.74143886  0.07543245  1
  S  S57  1  0.74764880  0.25856114  0.92456755  1
  S  S58  1  0.74764880  0.75856114  0.57543245  1
  S  S59  1  0.24764880  0.24143886  0.42456755  1
