# generated using pymatgen
data_Sr2Sn
_symmetry_space_group_name_H-M   'P 1'
_cell_length_a   5.42553829
_cell_length_b   8.39692577
_cell_length_c   10.17450006
_cell_angle_alpha   90.00000000
_cell_angle_beta   90.00000000
_cell_angle_gamma   90.00000000
_symmetry_Int_Tables_number   1
_chemical_formula_structural   Sr2Sn
_chemical_formula_sum   'Sr8 Sn4'
_cell_volume   463.52826905
_cell_formula_units_Z   4
loop_
 _symmetry_equiv_pos_site_id
 _symmetry_equiv_pos_as_xyz
  1  'x, y, z'
loop_
 _atom_site_type_symbol
 _atom_site_label
 _atom_site_symmetry_multiplicity
 _atom_site_fract_x
 _atom_site_fract_y
 _atom_site_fract_z
 _atom_site_occupancy
  Sr  Sr0  1  0.25000000  0.47973758  0.81785643  1
  Sr  Sr1  1  0.75000000  0.52026242  0.18214357  1
  Sr  Sr2  1  0.25000000  0.97973758  0.68214357  1
  Sr  Sr3  1  0.75000000  0.02026242  0.31785643  1
  Sr  Sr4  1  0.75000000  0.15773089  0.92629532  1
  Sr  Sr5  1  0.25000000  0.84226911  0.07370468  1
  Sr  Sr6  1  0.75000000  0.65773089  0.57370468  1
  Sr  Sr7  1  0.25000000  0.34226911  0.42629532  1
  Sn  Sn8  1  0.25000000  0.75065620  0.39414184  1
  Sn  Sn9  1  0.75000000  0.24934380  0.60585816  1
  Sn  Sn10  1  0.25000000  0.25065620  0.10585816  1
  Sn  Sn11  1  0.75000000  0.74934380  0.89414184  1
