# generated using pymatgen
data_Na2FeNiF7
_symmetry_space_group_name_H-M   'P 1'
_cell_length_a   7.30180053
_cell_length_b   7.40564805
_cell_length_c   7.40564785
_cell_angle_alpha   61.43138822
_cell_angle_beta   60.46279838
_cell_angle_gamma   60.46279381
_symmetry_Int_Tables_number   1
_chemical_formula_structural   Na2FeNiF7
_chemical_formula_sum   'Na4 Fe2 Ni2 F14'
_cell_volume   288.13039685
_cell_formula_units_Z   2
loop_
 _symmetry_equiv_pos_site_id
 _symmetry_equiv_pos_as_xyz
  1  'x, y, z'
loop_
 _atom_site_type_symbol
 _atom_site_label
 _atom_site_symmetry_multiplicity
 _atom_site_fract_x
 _atom_site_fract_y
 _atom_site_fract_z
 _atom_site_occupancy
  Na  Na0  1  0.24959836  0.48985288  0.51014712  1
  Na  Na1  1  0.75370273  0.99543664  0.49715790  1
  Na  Na2  1  0.75040164  0.48985288  0.51014712  1
  Na  Na3  1  0.24629727  0.50284210  0.00456336  1
  Fe  Fe4  1  0.25013480  0.99761930  0.50211109  1
  Fe  Fe5  1  0.74986520  0.49788891  0.00238070  1
  Ni  Ni6  1  0.25053679  0.99819063  0.00180937  1
  Ni  Ni7  1  0.74946321  0.99819063  0.00180937  1
  F  F8  1  0.06510674  0.31833142  0.95043962  1
  F  F9  1  0.84271744  0.63412144  0.68044369  1
  F  F10  1  0.50000000  0.10093698  0.89906302  1
  F  F11  1  0.16632448  0.94781840  0.32156643  1
  F  F12  1  0.65871980  0.35924551  0.32331489  1
  F  F13  1  0.33387777  0.04956038  0.68166858  1
  F  F14  1  0.56429069  0.94781840  0.32156643  1
  F  F15  1  0.93489326  0.04956038  0.68166858  1
  F  F16  1  0.66612223  0.31833142  0.95043962  1
  F  F17  1  0.15728256  0.31955631  0.36587856  1
  F  F18  1  0.34128020  0.67668511  0.64075449  1
  F  F19  1  1.00000000  0.89669313  0.10330687  1
  F  F20  1  0.83367552  0.67843357  0.05218160  1
  F  F21  1  0.43570931  0.67843357  0.05218160  1
