# generated using pymatgen
data_RbBiO2
_symmetry_space_group_name_H-M   'P 1'
_cell_length_a   6.00871623
_cell_length_b   6.00871623
_cell_length_c   6.09947397
_cell_angle_alpha   112.52433671
_cell_angle_beta   112.52433668
_cell_angle_gamma   93.82629365
_symmetry_Int_Tables_number   1
_chemical_formula_structural   RbBiO2
_chemical_formula_sum   'Rb2 Bi2 O4'
_cell_volume   181.92680697
_cell_formula_units_Z   2
loop_
 _symmetry_equiv_pos_site_id
 _symmetry_equiv_pos_as_xyz
  1  'x, y, z'
loop_
 _atom_site_type_symbol
 _atom_site_label
 _atom_site_symmetry_multiplicity
 _atom_site_fract_x
 _atom_site_fract_y
 _atom_site_fract_z
 _atom_site_occupancy
  O  O0  1  0.12192605  0.24608208  0.21508456  1
  O  O1  1  0.75391792  0.87807395  0.28491544  1
  O  O2  1  0.24608208  0.12192605  0.71508456  1
  O  O3  1  0.87807395  0.75391792  0.78491544  1
  Rb  Rb4  1  0.36530082  0.63469918  0.75000000  1
  Rb  Rb5  1  0.63469918  0.36530082  0.25000000  1
  Bi  Bi6  1  0.09126402  0.90873598  0.25000000  1
  Bi  Bi7  1  0.90873598  0.09126402  0.75000000  1
