# generated using pymatgen
data_Li4MoO5
_symmetry_space_group_name_H-M   'P 1'
_cell_length_a   14.93692469
_cell_length_b   7.93225133
_cell_length_c   5.13244903
_cell_angle_alpha   29.33792464
_cell_angle_beta   30.00133683
_cell_angle_gamma   18.87351206
_symmetry_Int_Tables_number   1
_chemical_formula_structural   Li4MoO5
_chemical_formula_sum   'Li4 Mo1 O5'
_cell_volume   93.07746794
_cell_formula_units_Z   1
loop_
 _symmetry_equiv_pos_site_id
 _symmetry_equiv_pos_as_xyz
  1  'x, y, z'
loop_
 _atom_site_type_symbol
 _atom_site_label
 _atom_site_symmetry_multiplicity
 _atom_site_fract_x
 _atom_site_fract_y
 _atom_site_fract_z
 _atom_site_occupancy
  Li  Li0  1  0.21647978  0.96812052  0.01094667  1
  Li  Li1  1  0.40921284  0.99243607  0.97590583  1
  Li  Li2  1  0.58683041  0.01379225  0.02355748  1
  Li  Li3  1  0.79036262  0.01841667  0.99007492  1
  Mo  Mo4  1  0.99872367  0.95142377  0.05271159  1
  O  O5  1  0.18589313  0.55315874  0.43867904  1
  O  O6  1  0.36055275  0.56510219  0.52995229  1
  O  O7  1  0.63754991  0.46336158  0.44985030  1
  O  O8  1  0.81317666  0.47406275  0.54013386  1
  O  O9  1  0.99895025  0.51957946  0.48426301  1
