# generated using pymatgen
data_K2Ti2O5
_symmetry_space_group_name_H-M   'P 1'
_cell_length_a   3.80697220
_cell_length_b   6.06862333
_cell_length_c   6.73078809
_cell_angle_alpha   99.02326942
_cell_angle_beta   90.00000000
_cell_angle_gamma   108.27995513
_symmetry_Int_Tables_number   1
_chemical_formula_structural   K2Ti2O5
_chemical_formula_sum   'K2 Ti2 O5'
_cell_volume   145.62653345
_cell_formula_units_Z   1
loop_
 _symmetry_equiv_pos_site_id
 _symmetry_equiv_pos_as_xyz
  1  'x, y, z'
loop_
 _atom_site_type_symbol
 _atom_site_label
 _atom_site_symmetry_multiplicity
 _atom_site_fract_x
 _atom_site_fract_y
 _atom_site_fract_z
 _atom_site_occupancy
  O  O0  1  0.67790335  0.35580669  0.98916130  1
  O  O1  1  0.32209665  0.64419331  0.01083870  1
  O  O2  1  0.87433813  0.74867626  0.35261308  1
  O  O3  1  0.12566187  0.25132374  0.64738692  1
  O  O4  1  0.00000000  0.00000000  0.00000000  1
  K  K5  1  0.59870363  0.19740726  0.35189400  1
  K  K6  1  0.40129637  0.80259274  0.64810600  1
  Ti  Ti7  1  0.85262110  0.70524219  0.09182733  1
  Ti  Ti8  1  0.14737890  0.29475781  0.90817267  1
