# generated using pymatgen
data_Sr5NbN5
_symmetry_space_group_name_H-M   'P 1'
_cell_length_a   6.51228872
_cell_length_b   7.33445600
_cell_length_c   18.03005463
_cell_angle_alpha   90.00000000
_cell_angle_beta   90.00000000
_cell_angle_gamma   90.00000000
_symmetry_Int_Tables_number   1
_chemical_formula_structural   Sr5NbN5
_chemical_formula_sum   'Sr20 Nb4 N20'
_cell_volume   861.18924358
_cell_formula_units_Z   4
loop_
 _symmetry_equiv_pos_site_id
 _symmetry_equiv_pos_as_xyz
  1  'x, y, z'
loop_
 _atom_site_type_symbol
 _atom_site_label
 _atom_site_symmetry_multiplicity
 _atom_site_fract_x
 _atom_site_fract_y
 _atom_site_fract_z
 _atom_site_occupancy
  N  N0  1  0.35200283  0.75000000  0.67603515  1
  N  N1  1  0.35200283  0.25000000  0.82396485  1
  N  N2  1  0.64799717  0.25000000  0.32396485  1
  N  N3  1  0.64799717  0.75000000  0.17603515  1
  N  N4  1  0.96827183  0.25000000  0.51089509  1
  N  N5  1  0.96827183  0.75000000  0.98910491  1
  N  N6  1  0.51370725  0.75000000  0.44578392  1
  N  N7  1  0.51370725  0.25000000  0.05421608  1
  N  N8  1  0.48629275  0.25000000  0.55421608  1
  N  N9  1  0.48629275  0.75000000  0.94578392  1
  N  N10  1  0.84664471  0.46938241  0.65433576  1
  N  N11  1  0.84664471  0.53061759  0.84566424  1
  N  N12  1  0.15335529  0.96938241  0.34566424  1
  N  N13  1  0.15335529  0.03061759  0.15433576  1
  N  N14  1  0.15335529  0.53061759  0.34566424  1
  N  N15  1  0.15335529  0.46938241  0.15433576  1
  N  N16  1  0.84664471  0.03061759  0.65433576  1
  N  N17  1  0.84664471  0.96938241  0.84566424  1
  N  N18  1  0.03172817  0.75000000  0.48910491  1
  N  N19  1  0.03172817  0.25000000  0.01089509  1
  Sr  Sr20  1  0.53501650  0.00000000  0.75000000  1
  Sr  Sr21  1  0.46498350  0.50000000  0.25000000  1
  Sr  Sr22  1  0.46498350  0.00000000  0.25000000  1
  Sr  Sr23  1  0.53501650  0.50000000  0.75000000  1
  Sr  Sr24  1  0.00003777  0.25000000  0.26459930  1
  Sr  Sr25  1  0.00003777  0.75000000  0.23540070  1
  Sr  Sr26  1  0.32082112  0.75000000  0.08025108  1
  Sr  Sr27  1  0.32082112  0.25000000  0.41974892  1
  Sr  Sr28  1  0.67917888  0.25000000  0.91974892  1
  Sr  Sr29  1  0.67917888  0.75000000  0.58025108  1
  Sr  Sr30  1  0.79930150  0.49509640  0.42329052  1
  Sr  Sr31  1  0.79930150  0.50490360  0.07670948  1
  Sr  Sr32  1  0.20069850  0.99509640  0.57670948  1
  Sr  Sr33  1  0.20069850  0.00490360  0.92329052  1
  Sr  Sr34  1  0.20069850  0.50490360  0.57670948  1
  Sr  Sr35  1  0.20069850  0.49509640  0.92329052  1
  Sr  Sr36  1  0.79930150  0.00490360  0.42329052  1
  Sr  Sr37  1  0.79930150  0.99509640  0.07670948  1
  Sr  Sr38  1  0.99996223  0.75000000  0.73540070  1
  Sr  Sr39  1  0.99996223  0.25000000  0.76459930  1
  Nb  Nb40  1  0.22922441  0.75000000  0.40662002  1
  Nb  Nb41  1  0.22922441  0.25000000  0.09337998  1
  Nb  Nb42  1  0.77077559  0.25000000  0.59337998  1
  Nb  Nb43  1  0.77077559  0.75000000  0.90662002  1
