# generated using pymatgen
data_Cs5Te3H4NCl18
_symmetry_space_group_name_H-M   'P 1'
_cell_length_a   7.52195115
_cell_length_b   7.52195130
_cell_length_c   22.56728415
_cell_angle_alpha   60.00209456
_cell_angle_beta   60.00209392
_cell_angle_gamma   59.99999689
_symmetry_Int_Tables_number   1
_chemical_formula_structural   Cs5Te3H4NCl18
_chemical_formula_sum   'Cs5 Te3 H4 N1 Cl18'
_cell_volume   902.89877177
_cell_formula_units_Z   1
loop_
 _symmetry_equiv_pos_site_id
 _symmetry_equiv_pos_as_xyz
  1  'x, y, z'
loop_
 _atom_site_type_symbol
 _atom_site_label
 _atom_site_symmetry_multiplicity
 _atom_site_fract_x
 _atom_site_fract_y
 _atom_site_fract_z
 _atom_site_occupancy
  Cs  Cs0  1  0.25009717  0.25009717  0.08323583  1
  Cs  Cs1  1  0.24999336  0.24999336  0.41667364  1
  Cs  Cs2  1  0.24991005  0.24991005  0.75008995  1
  Cs  Cs3  1  0.75000154  0.75000154  0.24999846  1
  Cs  Cs4  1  0.74998557  0.74998557  0.58334743  1
  Te  Te5  1  0.00028721  0.00028721  0.99971279  1
  Te  Te6  1  0.00000699  0.00000699  0.33332601  1
  Te  Te7  1  0.99970383  0.99970383  0.66696317  1
  H  H8  1  0.69370703  0.69370703  0.89790074  1
  H  H9  1  0.69370703  0.91888471  0.89790074  1
  H  H10  1  0.69350466  0.69350466  0.97316234  1
  H  H11  1  0.91888471  0.69370703  0.89790074  1
  N  N12  1  0.75022530  0.75022530  0.91644170  1
  Cl  Cl13  1  0.24316440  0.75786323  0.08036971  1
  Cl  Cl14  1  0.24209033  0.24209033  0.25263747  1
  Cl  Cl15  1  0.24209033  0.75790593  0.25263747  1
  Cl  Cl16  1  0.75786323  0.24316440  0.08036971  1
  Cl  Cl17  1  0.24195945  0.24195945  0.58603831  1
  Cl  Cl18  1  0.24209000  0.75790937  0.41403009  1
  Cl  Cl19  1  0.75790593  0.24209033  0.25263747  1
  Cl  Cl20  1  0.75786323  0.75786323  0.08036971  1
  Cl  Cl21  1  0.24195945  0.75796715  0.58603831  1
  Cl  Cl22  1  0.75790937  0.24209000  0.41403009  1
  Cl  Cl23  1  0.24256392  0.24256392  0.91911965  1
  Cl  Cl24  1  0.24135961  0.75760632  0.74780959  1
  Cl  Cl25  1  0.75796715  0.24195945  0.58603831  1
  Cl  Cl26  1  0.75790937  0.75790937  0.41403009  1
  Cl  Cl27  1  0.24256392  0.75751321  0.91911965  1
  Cl  Cl28  1  0.75760632  0.24135961  0.74780959  1
  Cl  Cl29  1  0.75751321  0.24256392  0.91911965  1
  Cl  Cl30  1  0.75760632  0.75760632  0.74780959  1
