# generated using pymatgen
data_SrCa2I6
_symmetry_space_group_name_H-M   'P 1'
_cell_length_a   7.41976718
_cell_length_b   14.64814160
_cell_length_c   14.52394572
_cell_angle_alpha   90.00000000
_cell_angle_beta   90.00000000
_cell_angle_gamma   90.00000000
_symmetry_Int_Tables_number   1
_chemical_formula_structural   SrCa2I6
_chemical_formula_sum   'Sr4 Ca8 I24'
_cell_volume   1578.54666397
_cell_formula_units_Z   4
loop_
 _symmetry_equiv_pos_site_id
 _symmetry_equiv_pos_as_xyz
  1  'x, y, z'
loop_
 _atom_site_type_symbol
 _atom_site_label
 _atom_site_symmetry_multiplicity
 _atom_site_fract_x
 _atom_site_fract_y
 _atom_site_fract_z
 _atom_site_occupancy
  Sr  Sr0  1  0.02061779  0.99617225  0.14496491  1
  Sr  Sr1  1  0.47938221  0.00382775  0.64496491  1
  Sr  Sr2  1  0.52061779  0.50382775  0.85503509  1
  Sr  Sr3  1  0.97938221  0.49617225  0.35503509  1
  Ca  Ca4  1  0.96524990  0.37596117  0.04666282  1
  Ca  Ca5  1  0.05747938  0.31201279  0.63159513  1
  Ca  Ca6  1  0.44252062  0.68798721  0.13159513  1
  Ca  Ca7  1  0.53475010  0.62403883  0.54666282  1
  Ca  Ca8  1  0.46524990  0.12403883  0.95333718  1
  Ca  Ca9  1  0.55747938  0.18798721  0.36840487  1
  Ca  Ca10  1  0.94252062  0.81201279  0.86840487  1
  Ca  Ca11  1  0.03475010  0.87596117  0.45333718  1
  I  I12  1  0.13704572  0.66914116  0.47845125  1
  I  I13  1  0.21231702  0.50969503  0.17029769  1
  I  I14  1  0.12499889  0.87217788  0.67271771  1
  I  I15  1  0.22791375  0.83162777  0.25417280  1
  I  I16  1  0.25827313  0.33194843  0.43547063  1
  I  I17  1  0.26709968  0.05581931  0.45839491  1
  I  I18  1  0.23290032  0.94418069  0.95839491  1
  I  I19  1  0.24172687  0.66805157  0.93547063  1
  I  I20  1  0.27208625  0.16837223  0.75417280  1
  I  I21  1  0.37500111  0.12782212  0.17271771  1
  I  I22  1  0.28768298  0.49030497  0.67029769  1
  I  I23  1  0.36295428  0.33085884  0.97845125  1
  I  I24  1  0.63704572  0.83085884  0.52154875  1
  I  I25  1  0.71231702  0.99030497  0.82970231  1
  I  I26  1  0.62499889  0.62782212  0.32728229  1
  I  I27  1  0.72791375  0.66837223  0.74582720  1
  I  I28  1  0.75827313  0.16805157  0.56452937  1
  I  I29  1  0.76709968  0.44418069  0.54160509  1
  I  I30  1  0.73290032  0.55581931  0.04160509  1
  I  I31  1  0.74172687  0.83194843  0.06452937  1
  I  I32  1  0.77208625  0.33162777  0.24582720  1
  I  I33  1  0.87500111  0.37217788  0.82728229  1
  I  I34  1  0.78768298  0.00969503  0.32970231  1
  I  I35  1  0.86295428  0.16914116  0.02154875  1
