# generated using pymatgen
data_FeOF
_symmetry_space_group_name_H-M   'P 1'
_cell_length_a   4.78374118
_cell_length_b   9.55164542
_cell_length_c   3.08140656
_cell_angle_alpha   90.00000000
_cell_angle_beta   90.00000000
_cell_angle_gamma   93.34827202
_symmetry_Int_Tables_number   1
_chemical_formula_structural   FeOF
_chemical_formula_sum   'Fe4 O4 F4'
_cell_volume   140.55712961
_cell_formula_units_Z   4
loop_
 _symmetry_equiv_pos_site_id
 _symmetry_equiv_pos_as_xyz
  1  'x, y, z'
loop_
 _atom_site_type_symbol
 _atom_site_label
 _atom_site_symmetry_multiplicity
 _atom_site_fract_x
 _atom_site_fract_y
 _atom_site_fract_z
 _atom_site_occupancy
  Fe  Fe0  1  0.05302215  -0.00002558  0.00000000  1
  Fe  Fe1  1  0.98669253  0.49896086  0.00000000  1
  Fe  Fe2  1  0.51640211  0.24856174  0.50000000  1
  Fe  Fe3  1  0.44107238  0.74994489  0.50000000  1
  O  O4  1  0.19703515  0.90267593  0.50000000  1
  O  O5  1  0.31785069  0.15773969  0.00000000  1
  O  O6  1  0.29027589  0.64672139  0.00000000  1
  O  O7  1  0.70407930  0.35247362  0.00000000  1
  F  F8  1  0.18686320  0.40529122  0.50000000  1
  F  F9  1  0.69191034  0.84538299  0.00000000  1
  F  F10  1  0.81702581  0.09142973  0.50000000  1
  F  F11  1  0.79777144  0.60084353  0.50000000  1
