# generated using pymatgen
data_SCl
_symmetry_space_group_name_H-M   'P 1'
_cell_length_a   5.18791459
_cell_length_b   9.73331616
_cell_length_c   11.87389955
_cell_angle_alpha   86.66235818
_cell_angle_beta   77.38147572
_cell_angle_gamma   74.54372362
_symmetry_Int_Tables_number   1
_chemical_formula_structural   SCl
_chemical_formula_sum   'S8 Cl8'
_cell_volume   563.93711367
_cell_formula_units_Z   8
loop_
 _symmetry_equiv_pos_site_id
 _symmetry_equiv_pos_as_xyz
  1  'x, y, z'
loop_
 _atom_site_type_symbol
 _atom_site_label
 _atom_site_symmetry_multiplicity
 _atom_site_fract_x
 _atom_site_fract_y
 _atom_site_fract_z
 _atom_site_occupancy
  S  S0  1  0.41145750  0.35570095  0.86428430  1
  S  S1  1  0.63144275  0.64429905  0.13571570  1
  S  S2  1  0.51715845  0.14429905  0.36428430  1
  S  S3  1  0.02574180  0.85570095  0.63571570  1
  S  S4  1  0.54626385  0.52005090  0.81417860  1
  S  S5  1  0.88049335  0.47994910  0.18582140  1
  S  S6  1  0.81631475  0.97994910  0.31417860  1
  S  S7  1  0.11044245  0.02005090  0.68582140  1
  Cl  Cl8  1  0.61612254  0.24191831  0.98970317  1
  Cl  Cl9  1  0.84774402  0.75808169  0.01029683  1
  Cl  Cl10  1  0.60804085  0.25808169  0.48970317  1
  Cl  Cl11  1  0.35582571  0.74191831  0.51029683  1
  Cl  Cl12  1  0.89455868  0.46353824  0.67882039  1
  Cl  Cl13  1  0.03691732  0.53646176  0.32117961  1
  Cl  Cl14  1  0.10809692  0.03646176  0.17882039  1
  Cl  Cl15  1  0.32337907  0.96353824  0.82117961  1
