# generated using pymatgen
data_Al(HO)3
_symmetry_space_group_name_H-M   'P 1'
_cell_length_a   5.03914918
_cell_length_b   5.20549489
_cell_length_c   4.99653007
_cell_angle_alpha   86.64857737
_cell_angle_beta   91.30030271
_cell_angle_gamma   120.94196232
_symmetry_Int_Tables_number   1
_chemical_formula_structural   Al(HO)3
_chemical_formula_sum   'Al2 H6 O6'
_cell_volume   112.21680738
_cell_formula_units_Z   2
loop_
 _symmetry_equiv_pos_site_id
 _symmetry_equiv_pos_as_xyz
  1  'x, y, z'
loop_
 _atom_site_type_symbol
 _atom_site_label
 _atom_site_symmetry_multiplicity
 _atom_site_fract_x
 _atom_site_fract_y
 _atom_site_fract_z
 _atom_site_occupancy
  Al  Al0  1  0.30919639  0.65190202  0.99156001  1
  Al  Al1  1  0.63055204  0.31329514  0.99231083  1
  H  H2  1  0.56294626  0.00192141  0.59878672  1
  H  H3  1  0.12696988  0.22081338  0.75077773  1
  H  H4  1  0.94288345  0.79610746  0.75122005  1
  H  H5  1  0.13411983  0.90451296  0.25085343  1
  H  H6  1  0.53636882  0.53632912  0.38625327  1
  H  H7  1  0.94533211  0.14952447  0.24082027  1
  O  O8  1  0.62227196  0.99746658  0.78603154  1
  O  O9  1  0.34339370  0.37403772  0.77588669  1
  O  O10  1  0.96701735  0.62410475  0.79011161  1
  O  O11  1  0.34460858  0.96317722  0.20457395  1
  O  O12  1  0.60618619  0.60559284  0.20143785  1
  O  O13  1  0.96467145  0.34143595  0.19305605  1
