# generated using pymatgen
data_KCu2H20N3(Cl2O)4
_symmetry_space_group_name_H-M   'P 1'
_cell_length_a   7.68043526
_cell_length_b   7.68043526
_cell_length_c   8.00730071
_cell_angle_alpha   90.00000000
_cell_angle_beta   90.00000000
_cell_angle_gamma   90.00000000
_symmetry_Int_Tables_number   1
_chemical_formula_structural   KCu2H20N3(Cl2O)4
_chemical_formula_sum   'K1 Cu2 H20 N3 Cl8 O4'
_cell_volume   472.34334847
_cell_formula_units_Z   1
loop_
 _symmetry_equiv_pos_site_id
 _symmetry_equiv_pos_as_xyz
  1  'x, y, z'
loop_
 _atom_site_type_symbol
 _atom_site_label
 _atom_site_symmetry_multiplicity
 _atom_site_fract_x
 _atom_site_fract_y
 _atom_site_fract_z
 _atom_site_occupancy
  Cl  Cl0  1  0.21348447  0.21775103  0.49783977  1
  Cl  Cl1  1  0.21436994  0.20379049  0.99604907  1
  Cl  Cl2  1  0.29620951  0.71436994  0.50395093  1
  Cl  Cl3  1  0.28224897  0.71348447  0.00216023  1
  Cl  Cl4  1  0.71775103  0.28651553  0.00216023  1
  Cl  Cl5  1  0.70379049  0.28563006  0.50395093  1
  Cl  Cl6  1  0.78563006  0.79620951  0.99604907  1
  Cl  Cl7  1  0.78651553  0.78224897  0.49783977  1
  Cu  Cu8  1  0.50000000  0.50000000  0.50098947  1
  Cu  Cu9  1  0.00000000  0.00000000  0.99901053  1
  H  H10  1  0.07167504  0.41572056  0.32456365  1
  H  H11  1  0.07196051  0.41612070  0.67546240  1
  H  H12  1  0.08387930  0.57196051  0.82453760  1
  H  H13  1  0.08427944  0.57167504  0.17543635  1
  H  H14  1  0.07384409  0.07465787  0.31646830  1
  H  H15  1  0.07355455  0.07500758  0.68130035  1
  H  H16  1  0.42534213  0.57384409  0.18353170  1
  H  H17  1  0.42499242  0.57355455  0.81869965  1
  H  H18  1  0.41628791  0.07226133  0.32436558  1
  H  H19  1  0.42773867  0.91628791  0.17563442  1
  H  H20  1  0.57226133  0.08371209  0.17563442  1
  H  H21  1  0.58371209  0.92773867  0.32436558  1
  H  H22  1  0.57465787  0.42615591  0.18353170  1
  H  H23  1  0.57500758  0.42644545  0.81869965  1
  H  H24  1  0.92615591  0.92534213  0.31646830  1
  H  H25  1  0.92644545  0.92499242  0.68130035  1
  H  H26  1  0.91572056  0.42832496  0.17543635  1
  H  H27  1  0.91612070  0.42803949  0.82453760  1
  H  H28  1  0.92832496  0.58427944  0.32456365  1
  H  H29  1  0.92803949  0.58387930  0.67546240  1
  K  K30  1  0.50000000  0.00000000  0.75000000  1
  N  N31  1  0.00000000  0.50000000  0.25000000  1
  N  N32  1  0.50000000  0.00000000  0.25000000  1
  N  N33  1  0.00000000  0.50000000  0.75000000  1
  O  O34  1  0.00000000  0.00000000  0.75333355  1
  O  O35  1  0.50000000  0.50000000  0.25555190  1
  O  O36  1  0.50000000  0.50000000  0.74666645  1
  O  O37  1  0.00000000  0.00000000  0.24444810  1
