# generated using pymatgen
data_K2HBrO
_symmetry_space_group_name_H-M   'P 1'
_cell_length_a   4.31704489
_cell_length_b   6.83196959
_cell_length_c   8.59334791
_cell_angle_alpha   108.14503681
_cell_angle_beta   90.00000000
_cell_angle_gamma   90.00000000
_symmetry_Int_Tables_number   1
_chemical_formula_structural   K2HBrO
_chemical_formula_sum   'K4 H2 Br2 O2'
_cell_volume   240.84767965
_cell_formula_units_Z   2
loop_
 _symmetry_equiv_pos_site_id
 _symmetry_equiv_pos_as_xyz
  1  'x, y, z'
loop_
 _atom_site_type_symbol
 _atom_site_label
 _atom_site_symmetry_multiplicity
 _atom_site_fract_x
 _atom_site_fract_y
 _atom_site_fract_z
 _atom_site_occupancy
  H  H0  1  0.25000000  0.16381668  0.78866859  1
  H  H1  1  0.75000000  0.83618332  0.21133141  1
  O  O2  1  0.25000000  0.31418727  0.82719122  1
  O  O3  1  0.75000000  0.68581273  0.17280878  1
  K  K4  1  0.75000000  0.29089053  0.03544584  1
  K  K5  1  0.25000000  0.70910947  0.96455416  1
  K  K6  1  0.25000000  0.70576613  0.38376860  1
  K  K7  1  0.75000000  0.29423387  0.61623140  1
  Br  Br8  1  0.25000000  0.18057862  0.30009180  1
  Br  Br9  1  0.75000000  0.81942138  0.69990820  1
