# generated using pymatgen
data_Al3Si2H3O10
_symmetry_space_group_name_H-M   'P 1'
_cell_length_a   6.18862423
_cell_length_b   7.33893212
_cell_length_c   7.81306670
_cell_angle_alpha   64.60296513
_cell_angle_beta   88.01590288
_cell_angle_gamma   86.63710617
_symmetry_Int_Tables_number   1
_chemical_formula_structural   Al3Si2H3O10
_chemical_formula_sum   'Al6 Si4 H6 O20'
_cell_volume   319.98952596
_cell_formula_units_Z   2
loop_
 _symmetry_equiv_pos_site_id
 _symmetry_equiv_pos_as_xyz
  1  'x, y, z'
loop_
 _atom_site_type_symbol
 _atom_site_label
 _atom_site_symmetry_multiplicity
 _atom_site_fract_x
 _atom_site_fract_y
 _atom_site_fract_z
 _atom_site_occupancy
  H  H0  1  0.79765225  0.23568765  0.98395666  1
  H  H1  1  0.21627323  0.76033238  0.01690667  1
  H  H2  1  0.12052391  0.49927374  0.13191734  1
  H  H3  1  0.89405272  0.49648708  0.86913655  1
  H  H4  1  0.63007910  0.99978230  0.13337949  1
  H  H5  1  0.38432747  0.99594623  0.86766806  1
  O  O6  1  0.84876761  0.11101741  0.39937735  1
  O  O7  1  0.16557584  0.88480465  0.60155785  1
  O  O8  1  0.34986852  0.60919467  0.40340628  1
  O  O9  1  0.66444961  0.38662934  0.59756947  1
  O  O10  1  0.30833269  0.48823393  0.77614543  1
  O  O11  1  0.70597130  0.50759018  0.22477291  1
  O  O12  1  0.79665536  0.98696392  0.76959029  1
  O  O13  1  0.21780306  0.00885224  0.23133220  1
  O  O14  1  0.36601106  0.13872140  0.84733765  1
  O  O15  1  0.64820729  0.85704528  0.15360124  1
  O  O16  1  0.86577112  0.63818085  0.84639291  1
  O  O17  1  0.14856316  0.35759570  0.15453714  1
  O  O18  1  0.57690745  0.23820761  0.10461126  1
  O  O19  1  0.43745789  0.75765367  0.89624712  1
  O  O20  1  0.08711348  0.74545084  0.10422906  1
  O  O21  1  0.92708435  0.25035181  0.89679063  1
  O  O22  1  0.43181491  0.21481295  0.44059575  1
  O  O23  1  0.58252053  0.78101755  0.56026915  1
  O  O24  1  0.93455821  0.71658539  0.43591453  1
  O  O25  1  0.07975721  0.27937788  0.56495873  1
  Al  Al26  1  0.15435634  0.14907526  0.39636158  1
  Al  Al27  1  0.86002279  0.84672325  0.60456588  1
  Al  Al28  1  0.65598916  0.64872746  0.39415998  1
  Al  Al29  1  0.35835453  0.34703808  0.60676734  1
  Al  Al30  1  0.71609767  0.74523924  0.98991810  1
  Al  Al31  1  0.29823272  0.25061931  0.01098497  1
  Si  Si32  1  0.86429560  0.22100389  0.70434971  1
  Si  Si33  1  0.15005658  0.77485653  0.29664004  1
  Si  Si34  1  0.37262414  0.72543353  0.70872268  1
  Si  Si35  1  0.64177114  0.27038681  0.29212800  1
