# generated using pymatgen
data_Li5FeO3F2
_symmetry_space_group_name_H-M   'P 1'
_cell_length_a   3.88201800
_cell_length_b   5.34118959
_cell_length_c   6.04861763
_cell_angle_alpha   70.65852232
_cell_angle_beta   90.01890590
_cell_angle_gamma   68.69274328
_symmetry_Int_Tables_number   1
_chemical_formula_structural   Li5FeO3F2
_chemical_formula_sum   'Li5 Fe1 O3 F2'
_cell_volume   109.20464553
_cell_formula_units_Z   1
loop_
 _symmetry_equiv_pos_site_id
 _symmetry_equiv_pos_as_xyz
  1  'x, y, z'
loop_
 _atom_site_type_symbol
 _atom_site_label
 _atom_site_symmetry_multiplicity
 _atom_site_fract_x
 _atom_site_fract_y
 _atom_site_fract_z
 _atom_site_occupancy
  Li  Li0  1  0.68408884  0.62912593  0.86430432  1
  Li  Li1  1  0.68462883  0.62827752  0.34946811  1
  Li  Li2  1  0.28906815  0.41838496  0.68891539  1
  Li  Li3  1  0.31591641  0.36651882  0.13173001  1
  Li  Li4  1  0.98206537  0.03630232  0.52832408  1
  Fe  Fe5  1  0.99616113  0.00462045  0.97657209  1
  O  O6  1  0.14189153  0.71351137  0.83444244  1
  O  O7  1  0.49404397  0.00914416  0.05727164  1
  O  O8  1  0.83281559  0.33095305  0.68547431  1
  F  F9  1  0.16307683  0.67081814  0.34646694  1
  F  F10  1  0.83735235  0.32365727  0.20643567  1
