# generated using pymatgen
data_RuS3Cl8
_symmetry_space_group_name_H-M   'P 1'
_cell_length_a   8.18314528
_cell_length_b   8.40546735
_cell_length_c   11.21327147
_cell_angle_alpha   104.25385830
_cell_angle_beta   98.87386233
_cell_angle_gamma   108.69477208
_symmetry_Int_Tables_number   1
_chemical_formula_structural   RuS3Cl8
_chemical_formula_sum   'Ru2 S6 Cl16'
_cell_volume   684.87908116
_cell_formula_units_Z   2
loop_
 _symmetry_equiv_pos_site_id
 _symmetry_equiv_pos_as_xyz
  1  'x, y, z'
loop_
 _atom_site_type_symbol
 _atom_site_label
 _atom_site_symmetry_multiplicity
 _atom_site_fract_x
 _atom_site_fract_y
 _atom_site_fract_z
 _atom_site_occupancy
  S  S0  1  0.03148365  0.36177413  0.28148230  1
  S  S1  1  0.67508178  0.80846493  0.66372840  1
  S  S2  1  0.32491822  0.19153507  0.33627160  1
  S  S3  1  0.96851635  0.63822587  0.71851770  1
  S  S4  1  0.68387900  0.66926152  0.90880752  1
  S  S5  1  0.31612100  0.33073848  0.09119248  1
  Cl  Cl6  1  0.89199710  0.12420536  0.97350839  1
  Cl  Cl7  1  0.10800290  0.87579464  0.02649161  1
  Cl  Cl8  1  0.50525076  0.23165083  0.04029609  1
  Cl  Cl9  1  0.49474924  0.76834917  0.95970391  1
  Cl  Cl10  1  0.48937043  0.55565978  0.23799169  1
  Cl  Cl11  1  0.51062957  0.44434022  0.76200831  1
  Cl  Cl12  1  0.52778023  0.95981256  0.71422894  1
  Cl  Cl13  1  0.13181214  0.02904671  0.77321884  1
  Cl  Cl14  1  0.21494766  0.52453950  0.45442944  1
  Cl  Cl15  1  0.78505234  0.47546050  0.54557056  1
  Cl  Cl16  1  0.03405427  0.55061215  0.19270710  1
  Cl  Cl17  1  0.96594573  0.44938785  0.80729290  1
  Cl  Cl18  1  0.86818786  0.97095329  0.22678116  1
  Cl  Cl19  1  0.47221977  0.04018744  0.28577106  1
  Cl  Cl20  1  0.22601303  0.08720903  0.47222700  1
  Cl  Cl21  1  0.77398697  0.91279097  0.52777300  1
  Ru  Ru22  1  0.88549376  0.84637557  0.83246602  1
  Ru  Ru23  1  0.11450624  0.15362443  0.16753398  1
