# generated using pymatgen
data_Ge3Os2
_symmetry_space_group_name_H-M   'P 1'
_cell_length_a   5.81801659
_cell_length_b   9.34671241
_cell_length_c   11.62810349
_cell_angle_alpha   90.00000000
_cell_angle_beta   90.00000000
_cell_angle_gamma   90.00000000
_symmetry_Int_Tables_number   1
_chemical_formula_structural   Ge3Os2
_chemical_formula_sum   'Ge24 Os16'
_cell_volume   632.32845211
_cell_formula_units_Z   8
loop_
 _symmetry_equiv_pos_site_id
 _symmetry_equiv_pos_as_xyz
  1  'x, y, z'
loop_
 _atom_site_type_symbol
 _atom_site_label
 _atom_site_symmetry_multiplicity
 _atom_site_fract_x
 _atom_site_fract_y
 _atom_site_fract_z
 _atom_site_occupancy
  Ge  Ge0  1  0.60011021  0.10523446  0.63191576  1
  Ge  Ge1  1  0.10011021  0.39476554  0.86808424  1
  Ge  Ge2  1  0.89988979  0.10523446  0.36808424  1
  Ge  Ge3  1  0.39988979  0.39476554  0.13191576  1
  Ge  Ge4  1  0.39988979  0.89476554  0.36808424  1
  Ge  Ge5  1  0.89988979  0.60523446  0.13191576  1
  Ge  Ge6  1  0.10011021  0.89476554  0.63191576  1
  Ge  Ge7  1  0.60011021  0.60523446  0.86808424  1
  Ge  Ge8  1  0.90899402  0.06570190  0.82165461  1
  Ge  Ge9  1  0.40899402  0.43429810  0.67834539  1
  Ge  Ge10  1  0.59100598  0.06570190  0.17834539  1
  Ge  Ge11  1  0.09100598  0.43429810  0.32165461  1
  Ge  Ge12  1  0.09100598  0.93429810  0.17834539  1
  Ge  Ge13  1  0.59100598  0.56570190  0.32165461  1
  Ge  Ge14  1  0.40899402  0.93429810  0.82165461  1
  Ge  Ge15  1  0.90899402  0.56570190  0.67834539  1
  Ge  Ge16  1  0.54196049  0.71349827  0.57323579  1
  Ge  Ge17  1  0.04196049  0.78650173  0.92676421  1
  Ge  Ge18  1  0.95803951  0.71349827  0.42676421  1
  Ge  Ge19  1  0.45803951  0.78650173  0.07323579  1
  Ge  Ge20  1  0.45803951  0.28650173  0.42676421  1
  Ge  Ge21  1  0.95803951  0.21349827  0.07323579  1
  Ge  Ge22  1  0.04196049  0.28650173  0.57323579  1
  Ge  Ge23  1  0.54196049  0.21349827  0.92676421  1
  Os  Os24  1  0.75000000  0.92541230  0.50000000  1
  Os  Os25  1  0.25000000  0.57458770  0.00000000  1
  Os  Os26  1  0.25000000  0.07458770  0.50000000  1
  Os  Os27  1  0.75000000  0.42541230  0.00000000  1
  Os  Os28  1  0.75000000  0.45995108  0.50000000  1
  Os  Os29  1  0.25000000  0.04004892  0.00000000  1
  Os  Os30  1  0.25000000  0.54004892  0.50000000  1
  Os  Os31  1  0.75000000  0.95995108  0.00000000  1
  Os  Os32  1  0.75897697  0.31348676  0.74568991  1
  Os  Os33  1  0.25897697  0.18651324  0.75431009  1
  Os  Os34  1  0.74102303  0.31348676  0.25431009  1
  Os  Os35  1  0.24102303  0.18651324  0.24568991  1
  Os  Os36  1  0.24102303  0.68651324  0.25431009  1
  Os  Os37  1  0.74102303  0.81348676  0.24568991  1
  Os  Os38  1  0.25897697  0.68651324  0.74568991  1
  Os  Os39  1  0.75897697  0.81348676  0.75431009  1
