# generated using pymatgen
data_K3Nb3(BO6)2
_symmetry_space_group_name_H-M   'P 1'
_cell_length_a   8.94319254
_cell_length_b   8.94319254
_cell_length_c   3.96600936
_cell_angle_alpha   90.00000000
_cell_angle_beta   90.00000000
_cell_angle_gamma   120.00000000
_symmetry_Int_Tables_number   1
_chemical_formula_structural   K3Nb3(BO6)2
_chemical_formula_sum   'K3 Nb3 B2 O12'
_cell_volume   274.70687484
_cell_formula_units_Z   1
loop_
 _symmetry_equiv_pos_site_id
 _symmetry_equiv_pos_as_xyz
  1  'x, y, z'
loop_
 _atom_site_type_symbol
 _atom_site_label
 _atom_site_symmetry_multiplicity
 _atom_site_fract_x
 _atom_site_fract_y
 _atom_site_fract_z
 _atom_site_occupancy
  B  B0  1  0.66666667  0.33333333  0.00000000  1
  B  B1  1  0.33333333  0.66666667  0.00000000  1
  O  O2  1  0.18963312  0.68550868  0.00000000  1
  O  O3  1  0.68550868  0.18963312  0.00000000  1
  O  O4  1  0.81036688  0.49587556  0.00000000  1
  O  O5  1  0.50412444  0.31449132  0.00000000  1
  O  O6  1  0.31449132  0.50412444  0.00000000  1
  O  O7  1  0.49587556  0.81036688  0.00000000  1
  O  O8  1  0.73563614  0.00000000  0.50000000  1
  O  O9  1  0.26436386  0.26436386  0.50000000  1
  O  O10  1  0.00000000  0.73563614  0.50000000  1
  O  O11  1  0.17793290  0.00000000  0.00000000  1
  O  O12  1  0.82206710  0.82206710  0.00000000  1
  O  O13  1  0.00000000  0.17793290  0.00000000  1
  K  K14  1  0.40414542  0.00000000  0.50000000  1
  K  K15  1  0.59585458  0.59585458  0.50000000  1
  K  K16  1  0.00000000  0.40414542  0.50000000  1
  Nb  Nb17  1  0.75298659  0.00000000  0.00000000  1
  Nb  Nb18  1  0.24701341  0.24701341  0.00000000  1
  Nb  Nb19  1  0.00000000  0.75298659  0.00000000  1
