# generated using pymatgen
data_NaH9O5
_symmetry_space_group_name_H-M   'P 1'
_cell_length_a   8.06008065
_cell_length_b   7.92020672
_cell_length_c   9.74988145
_cell_angle_alpha   61.16979051
_cell_angle_beta   118.91415052
_cell_angle_gamma   148.33967663
_symmetry_Int_Tables_number   1
_chemical_formula_structural   NaH9O5
_chemical_formula_sum   'Na2 H18 O10'
_cell_volume   282.56400164
_cell_formula_units_Z   2
loop_
 _symmetry_equiv_pos_site_id
 _symmetry_equiv_pos_as_xyz
  1  'x, y, z'
loop_
 _atom_site_type_symbol
 _atom_site_label
 _atom_site_symmetry_multiplicity
 _atom_site_fract_x
 _atom_site_fract_y
 _atom_site_fract_z
 _atom_site_occupancy
  Na  Na0  1  0.53870400  0.44282128  0.86145830  1
  Na  Na1  1  0.44545306  0.53911994  0.14255127  1
  H  H2  1  0.62931243  0.15311222  0.62108327  1
  H  H3  1  0.36684715  0.84441414  0.38013838  1
  H  H4  1  0.93652274  0.45447903  0.97532250  1
  H  H5  1  0.73848641  0.26423784  0.82941519  1
  H  H6  1  0.27688526  0.75153375  0.16969726  1
  H  H7  1  0.45507892  0.93764684  0.02326878  1
  H  H8  1  0.19481309  0.49365467  0.79231186  1
  H  H9  1  0.55704948  0.85650454  0.80697876  1
  H  H10  1  0.44716043  0.14805003  0.19625202  1
  H  H11  1  0.81191338  0.50964770  0.20848791  1
  H  H12  1  0.91515378  0.06444940  0.72784215  1
  H  H13  1  0.06630778  0.85107118  0.67077738  1
  H  H14  1  0.05946303  0.91119345  0.27010218  1
  H  H15  1  0.90747261  0.12815584  0.32577631  1
  H  H16  1  0.99351794  0.61224196  0.64037044  1
  H  H17  1  0.03625561  0.92469848  0.41041978  1
  H  H18  1  0.96942930  0.07970471  0.59000704  1
  H  H19  1  0.00970309  0.39008585  0.35665348  1
  O  O20  1  0.79892773  0.23370292  0.71261376  1
  O  O21  1  0.20173438  0.76638981  0.28626755  1
  O  O22  1  0.71989924  0.29832357  0.90732381  1
  O  O23  1  0.29768214  0.71997146  0.09167583  1
  O  O24  1  0.40848152  0.62243525  0.85784319  1
  O  O25  1  0.59689729  0.38177055  0.14474947  1
  O  O26  1  0.98855958  0.02334250  0.70974203  1
  O  O27  1  0.00762744  0.97286442  0.29028360  1
  O  O28  1  0.10557264  0.83269762  0.60145582  1
  O  O29  1  0.89664854  0.16924004  0.39912967  1
