# generated using pymatgen
data_MoPbO4
_symmetry_space_group_name_H-M   'P 1'
_cell_length_a   5.52420755
_cell_length_b   5.52420755
_cell_length_c   7.30242459
_cell_angle_alpha   112.22500085
_cell_angle_beta   112.22500085
_cell_angle_gamma   90.00000000
_symmetry_Int_Tables_number   1
_chemical_formula_structural   MoPbO4
_chemical_formula_sum   'Mo2 Pb2 O8'
_cell_volume   188.28430984
_cell_formula_units_Z   2
loop_
 _symmetry_equiv_pos_site_id
 _symmetry_equiv_pos_as_xyz
  1  'x, y, z'
loop_
 _atom_site_type_symbol
 _atom_site_label
 _atom_site_symmetry_multiplicity
 _atom_site_fract_x
 _atom_site_fract_y
 _atom_site_fract_z
 _atom_site_occupancy
  Mo  Mo0  1  0.12500000  0.37500000  0.25000000  1
  Mo  Mo1  1  0.87500000  0.62500000  0.75000000  1
  Pb  Pb2  1  0.62500000  0.87500000  0.25000000  1
  Pb  Pb3  1  0.37500000  0.12500000  0.75000000  1
  O  O4  1  0.34126365  0.69248031  0.41125912  1
  O  O5  1  0.06999547  0.21877881  0.41125912  1
  O  O6  1  0.19248031  0.56999547  0.91125912  1
  O  O7  1  0.71877881  0.84126365  0.91125912  1
  O  O8  1  0.65873635  0.30751969  0.58874088  1
  O  O9  1  0.93000453  0.78122119  0.58874088  1
  O  O10  1  0.80751969  0.43000453  0.08874088  1
  O  O11  1  0.28122119  0.15873635  0.08874088  1
