# generated using pymatgen
data_RbTaO3
_symmetry_space_group_name_H-M   'P 1'
_cell_length_a   5.78193339
_cell_length_b   5.78193339
_cell_length_c   7.09753369
_cell_angle_alpha   90.00000000
_cell_angle_beta   90.00000000
_cell_angle_gamma   120.00000374
_symmetry_Int_Tables_number   1
_chemical_formula_structural   RbTaO3
_chemical_formula_sum   'Rb3 Ta3 O9'
_cell_volume   205.48694986
_cell_formula_units_Z   3
loop_
 _symmetry_equiv_pos_site_id
 _symmetry_equiv_pos_as_xyz
  1  'x, y, z'
loop_
 _atom_site_type_symbol
 _atom_site_label
 _atom_site_symmetry_multiplicity
 _atom_site_fract_x
 _atom_site_fract_y
 _atom_site_fract_z
 _atom_site_occupancy
  Rb  Rb0  1  0.33333300  0.66666700  0.64385622  1
  Rb  Rb1  1  0.00000000  0.00000000  0.97718922  1
  Rb  Rb2  1  0.66666700  0.33333300  0.31052222  1
  Ta  Ta3  1  0.33333300  0.66666700  0.15508136  1
  Ta  Ta4  1  0.00000000  0.00000000  0.48841536  1
  Ta  Ta5  1  0.66666700  0.33333300  0.82174836  1
  O  O6  1  0.66250907  0.83125453  0.29947214  1
  O  O7  1  0.16874547  0.33749093  0.29947214  1
  O  O8  1  0.16874547  0.83125453  0.29947214  1
  O  O9  1  0.32917607  0.16458753  0.63280514  1
  O  O10  1  0.83541247  0.67082393  0.63280514  1
  O  O11  1  0.83541247  0.16458753  0.63280514  1
  O  O12  1  0.99584207  0.49792153  0.96613914  1
  O  O13  1  0.50207847  0.00415793  0.96613914  1
  O  O14  1  0.50207847  0.49792153  0.96613914  1
