# generated using pymatgen
data_H8W3Se(NO6)2
_symmetry_space_group_name_H-M   'P 1'
_cell_length_a   7.34915149
_cell_length_b   7.34915149
_cell_length_c   12.57245846
_cell_angle_alpha   90.00000000
_cell_angle_beta   90.00000000
_cell_angle_gamma   120.00000001
_symmetry_Int_Tables_number   1
_chemical_formula_structural   H8W3Se(NO6)2
_chemical_formula_sum   'H16 W6 Se2 N4 O24'
_cell_volume   588.06487567
_cell_formula_units_Z   2
loop_
 _symmetry_equiv_pos_site_id
 _symmetry_equiv_pos_as_xyz
  1  'x, y, z'
loop_
 _atom_site_type_symbol
 _atom_site_label
 _atom_site_symmetry_multiplicity
 _atom_site_fract_x
 _atom_site_fract_y
 _atom_site_fract_z
 _atom_site_occupancy
  H  H0  1  0.66666660  0.33333260  0.15170295  1
  H  H1  1  0.25482440  0.51168006  0.14918419  1
  H  H2  1  0.74314412  0.25482405  0.64918425  1
  H  H3  1  0.51168043  0.25685556  0.64918425  1
  H  H4  1  0.33333384  0.66666723  0.65170221  1
  H  H5  1  0.66666660  0.33333260  0.53992297  1
  H  H6  1  0.33333384  0.66666723  0.03992370  1
  H  H7  1  0.40321270  0.81951814  0.76256927  1
  H  H8  1  0.58369393  0.40321235  0.26256921  1
  H  H9  1  0.48832001  0.74314427  0.14918419  1
  H  H10  1  0.18048289  0.58369449  0.76256927  1
  H  H11  1  0.41630514  0.59678748  0.76256927  1
  H  H12  1  0.59678774  0.18048169  0.26256921  1
  H  H13  1  0.74517604  0.48831978  0.64918425  1
  H  H14  1  0.25685632  0.74517579  0.14918419  1
  H  H15  1  0.81951755  0.41630534  0.26256921  1
  N  N16  1  0.66666660  0.33333260  0.23419154  1
  N  N17  1  0.33333384  0.66666723  0.73419160  1
  N  N18  1  0.66666660  0.33333260  0.62144794  1
  N  N19  1  0.33333384  0.66666723  0.12144788  1
  O  O20  1  0.20495205  0.80015079  0.53036404  1
  O  O21  1  0.79504839  0.19984905  0.03036398  1
  O  O22  1  0.80015113  0.59519878  0.03036398  1
  O  O23  1  0.59519800  0.79504827  0.53036404  1
  O  O24  1  0.54114929  0.08456437  0.84846975  1
  O  O25  1  0.45658472  0.54114851  0.34846969  1
  O  O26  1  0.19984931  0.40480106  0.53036404  1
  O  O27  1  0.91543636  0.45658527  0.84846975  1
  O  O28  1  0.54341572  0.45885133  0.84846975  1
  O  O29  1  0.45885115  0.91543546  0.34846969  1
  O  O30  1  0.24914950  0.12752696  0.72386499  1
  O  O31  1  0.12162123  0.24914862  0.22386493  1
  O  O32  1  0.12752720  0.87837863  0.22386493  1
  O  O33  1  0.87247188  0.12162121  0.72386499  1
  O  O34  1  0.87837784  0.75085122  0.72386499  1
  O  O35  1  0.75085094  0.87247288  0.22386493  1
  O  O36  1  0.08456408  0.54341457  0.34846969  1
  O  O37  1  0.87459384  0.12317850  0.40466199  1
  O  O38  1  0.75141453  0.87459343  0.90466205  1
  O  O39  1  0.12317823  0.24858535  0.90466205  1
  O  O40  1  0.87682084  0.75141449  0.40466199  1
  O  O41  1  0.24858455  0.12540640  0.40466199  1
  O  O42  1  0.12540660  0.87682134  0.90466205  1
  O  O43  1  0.40480107  0.20495156  0.03036398  1
  Se  Se44  1  0.00000000  0.00000000  0.66503474  1
  Se  Se45  1  0.00000000  0.00000000  0.16503468  1
  W  W46  1  0.83272040  0.66110735  0.89431919  1
  W  W47  1  0.82838657  0.16727933  0.89431919  1
  W  W48  1  0.66110819  0.82838713  0.39431914  1
  W  W49  1  0.16728004  0.33889248  0.39431914  1
  W  W50  1  0.33889225  0.17161270  0.89431919  1
  W  W51  1  0.17161250  0.83272050  0.39431914  1
