# generated using pymatgen
data_K2Ga2B2O7
_symmetry_space_group_name_H-M   'P 1'
_cell_length_a   8.67961719
_cell_length_b   8.67961702
_cell_length_c   8.86565555
_cell_angle_alpha   90.00000000
_cell_angle_beta   90.00000000
_cell_angle_gamma   120.00000069
_symmetry_Int_Tables_number   1
_chemical_formula_structural   K2Ga2B2O7
_chemical_formula_sum   'K6 Ga6 B6 O21'
_cell_volume   578.41908829
_cell_formula_units_Z   3
loop_
 _symmetry_equiv_pos_site_id
 _symmetry_equiv_pos_as_xyz
  1  'x, y, z'
loop_
 _atom_site_type_symbol
 _atom_site_label
 _atom_site_symmetry_multiplicity
 _atom_site_fract_x
 _atom_site_fract_y
 _atom_site_fract_z
 _atom_site_occupancy
  K  K0  1  0.68420756  0.00000000  0.00000000  1
  K  K1  1  1.00000000  0.64387294  0.50000000  1
  K  K2  1  0.00000000  0.68420756  0.00000000  1
  K  K3  1  0.35612706  0.35612706  0.50000000  1
  K  K4  1  0.64387294  0.00000000  0.50000000  1
  K  K5  1  0.31579244  0.31579244  0.00000000  1
  Ga  Ga6  1  0.33333300  0.66666700  0.81689957  1
  Ga  Ga7  1  0.66666700  0.33333300  0.77288039  1
  Ga  Ga8  1  0.33333300  0.66666700  0.22711961  1
  Ga  Ga9  1  0.00000000  0.00000000  0.70363799  1
  Ga  Ga10  1  0.66666700  0.33333300  0.18310043  1
  Ga  Ga11  1  0.00000000  0.00000000  0.29636201  1
  B  B12  1  0.66459032  0.66501820  0.25700095  1
  B  B13  1  0.66501820  0.66459032  0.74299905  1
  B  B14  1  0.33540968  0.00042788  0.74299905  1
  B  B15  1  0.33498180  0.99957212  0.25700095  1
  B  B16  1  0.00042788  0.33540968  0.25700095  1
  B  B17  1  0.99957212  0.33498180  0.74299905  1
  O  O18  1  0.74004102  0.56199236  0.70193774  1
  O  O19  1  0.43800764  0.17804866  0.70193774  1
  O  O20  1  0.58456850  0.48152862  0.25203066  1
  O  O21  1  0.17804866  0.43800764  0.29806226  1
  O  O22  1  0.22798447  0.07139124  0.22319769  1
  O  O23  1  0.10303987  0.51847138  0.74796934  1
  O  O24  1  0.51847138  0.10303987  0.25203066  1
  O  O25  1  0.84340677  0.77201553  0.22319769  1
  O  O26  1  0.15659323  0.92860876  0.77680231  1
  O  O27  1  0.25995898  0.82195134  0.29806226  1
  O  O28  1  0.89696013  0.41543150  0.25203066  1
  O  O29  1  0.92860876  0.15659323  0.22319769  1
  O  O30  1  0.00000000  0.00000000  0.50000000  1
  O  O31  1  0.82195134  0.25995898  0.70193774  1
  O  O32  1  0.07139124  0.22798447  0.77680231  1
  O  O33  1  0.66666700  0.33333300  0.97786225  1
  O  O34  1  0.41543150  0.89696013  0.74796934  1
  O  O35  1  0.77201553  0.84340677  0.77680231  1
  O  O36  1  0.33333300  0.66666700  0.02213775  1
  O  O37  1  0.56199236  0.74004102  0.29806226  1
  O  O38  1  0.48152862  0.58456850  0.74796934  1
