# generated using pymatgen
data_NbCl3O
_symmetry_space_group_name_H-M   'P 1'
_cell_length_a   4.00107222
_cell_length_b   11.50113489
_cell_length_c   11.50113489
_cell_angle_alpha   90.00000000
_cell_angle_beta   90.00000000
_cell_angle_gamma   90.00000000
_symmetry_Int_Tables_number   1
_chemical_formula_structural   NbCl3O
_chemical_formula_sum   'Nb4 Cl12 O4'
_cell_volume   529.24624412
_cell_formula_units_Z   4
loop_
 _symmetry_equiv_pos_site_id
 _symmetry_equiv_pos_as_xyz
  1  'x, y, z'
loop_
 _atom_site_type_symbol
 _atom_site_label
 _atom_site_symmetry_multiplicity
 _atom_site_fract_x
 _atom_site_fract_y
 _atom_site_fract_z
 _atom_site_occupancy
  Nb  Nb0  1  0.69556637  0.62300768  0.12300768  1
  Nb  Nb1  1  0.30443363  0.12300768  0.37699232  1
  Nb  Nb2  1  0.69556637  0.37699232  0.87699232  1
  Nb  Nb3  1  0.30443363  0.87699232  0.62300768  1
  Cl  Cl4  1  0.23776032  0.09835773  0.59835773  1
  Cl  Cl5  1  0.75489077  0.82066512  0.10040213  1
  Cl  Cl6  1  0.75489077  0.17933488  0.89959787  1
  Cl  Cl7  1  0.76223968  0.40164227  0.09835773  1
  Cl  Cl8  1  0.23776032  0.90164227  0.40164227  1
  Cl  Cl9  1  0.75489077  0.60040213  0.32066512  1
  Cl  Cl10  1  0.75489077  0.39959787  0.67933488  1
  Cl  Cl11  1  0.24510923  0.89959787  0.82066512  1
  Cl  Cl12  1  0.76223968  0.59835773  0.90164227  1
  Cl  Cl13  1  0.24510923  0.67933488  0.60040213  1
  Cl  Cl14  1  0.24510923  0.32066512  0.39959787  1
  Cl  Cl15  1  0.24510923  0.10040213  0.17933488  1
  O  O16  1  0.75234693  0.11481760  0.38518240  1
  O  O17  1  0.24765307  0.61481760  0.11481760  1
  O  O18  1  0.24765307  0.38518240  0.88518240  1
  O  O19  1  0.75234693  0.88518240  0.61481760  1
