# generated using pymatgen
data_HgCl2
_symmetry_space_group_name_H-M   'P 1'
_cell_length_a   4.36733969
_cell_length_b   6.60372221
_cell_length_c   13.58439665
_cell_angle_alpha   90.00000000
_cell_angle_beta   90.00000000
_cell_angle_gamma   90.00000000
_symmetry_Int_Tables_number   1
_chemical_formula_structural   HgCl2
_chemical_formula_sum   'Hg4 Cl8'
_cell_volume   391.78348278
_cell_formula_units_Z   4
loop_
 _symmetry_equiv_pos_site_id
 _symmetry_equiv_pos_as_xyz
  1  'x, y, z'
loop_
 _atom_site_type_symbol
 _atom_site_label
 _atom_site_symmetry_multiplicity
 _atom_site_fract_x
 _atom_site_fract_y
 _atom_site_fract_z
 _atom_site_occupancy
  Cl  Cl0  1  0.27546587  0.75000000  0.00668147  1
  Cl  Cl1  1  0.77546587  0.25000000  0.49331853  1
  Cl  Cl2  1  0.72453413  0.25000000  0.99331853  1
  Cl  Cl3  1  0.22453413  0.75000000  0.50668147  1
  Cl  Cl4  1  0.61074675  0.75000000  0.74074634  1
  Cl  Cl5  1  0.11074675  0.25000000  0.75925366  1
  Cl  Cl6  1  0.38925325  0.25000000  0.25925366  1
  Cl  Cl7  1  0.88925325  0.75000000  0.24074634  1
  Hg  Hg8  1  0.55748175  0.75000000  0.37393280  1
  Hg  Hg9  1  0.05748175  0.25000000  0.12606720  1
  Hg  Hg10  1  0.44251825  0.25000000  0.62606720  1
  Hg  Hg11  1  0.94251825  0.75000000  0.87393280  1
