# generated using pymatgen
data_RbLiCl2
_symmetry_space_group_name_H-M   'P 1'
_cell_length_a   4.18046486
_cell_length_b   7.31856163
_cell_length_c   7.58950936
_cell_angle_alpha   90.00000000
_cell_angle_beta   105.98649336
_cell_angle_gamma   90.00000000
_symmetry_Int_Tables_number   1
_chemical_formula_structural   RbLiCl2
_chemical_formula_sum   'Rb2 Li2 Cl4'
_cell_volume   223.22097119
_cell_formula_units_Z   2
loop_
 _symmetry_equiv_pos_site_id
 _symmetry_equiv_pos_as_xyz
  1  'x, y, z'
loop_
 _atom_site_type_symbol
 _atom_site_label
 _atom_site_symmetry_multiplicity
 _atom_site_fract_x
 _atom_site_fract_y
 _atom_site_fract_z
 _atom_site_occupancy
  Li  Li0  1  0.89609446  0.75000000  0.79218892  1
  Li  Li1  1  0.10390554  0.25000000  0.20781108  1
  Cl  Cl2  1  0.31000006  0.75000000  0.62000013  1
  Cl  Cl3  1  0.68999994  0.25000000  0.37999987  1
  Cl  Cl4  1  0.00000000  0.00000000  0.00000000  1
  Cl  Cl5  1  0.00000000  0.50000000  0.00000000  1
  Rb  Rb6  1  0.62931092  0.75000000  0.25862185  1
  Rb  Rb7  1  0.37068908  0.25000000  0.74137815  1
