# generated using pymatgen
data_Li2AlCoO4
_symmetry_space_group_name_H-M   'P 1'
_cell_length_a   6.31050363
_cell_length_b   10.87501178
_cell_length_c   5.01138726
_cell_angle_alpha   89.99988892
_cell_angle_beta   89.99815064
_cell_angle_gamma   89.99715223
_symmetry_Int_Tables_number   1
_chemical_formula_structural   Li2AlCoO4
_chemical_formula_sum   'Li8 Al4 Co4 O16'
_cell_volume   343.91547750
_cell_formula_units_Z   4
loop_
 _symmetry_equiv_pos_site_id
 _symmetry_equiv_pos_as_xyz
  1  'x, y, z'
loop_
 _atom_site_type_symbol
 _atom_site_label
 _atom_site_symmetry_multiplicity
 _atom_site_fract_x
 _atom_site_fract_y
 _atom_site_fract_z
 _atom_site_occupancy
  Li  Li0  1  0.00403409  0.83559610  0.75773091  1
  Li  Li1  1  0.24630937  0.08228863  0.75573450  1
  Li  Li2  1  0.25374567  0.58226161  0.75572910  1
  Li  Li3  1  0.49596214  0.33555775  0.75773695  1
  Li  Li4  1  0.50402749  0.66444867  0.25776287  1
  Li  Li5  1  0.74629519  0.41768252  0.25575362  1
  Li  Li6  1  0.75367319  0.91773853  0.25574540  1
  Li  Li7  1  0.99596326  0.16444214  0.25774730  1
  Al  Al8  1  0.24233659  0.41280423  0.26093793  1
  Al  Al9  1  0.25769716  0.91281780  0.26095182  1
  Al  Al10  1  0.74229049  0.08719341  0.76095098  1
  Al  Al11  1  0.75766421  0.58718859  0.76094889  1
  Co  Co12  1  0.01053304  0.66722098  0.25906553  1
  Co  Co13  1  0.48942972  0.16723810  0.25905760  1
  Co  Co14  1  0.51055600  0.83276665  0.75906344  1
  Co  Co15  1  0.98943832  0.33276931  0.75906135  1
  O  O16  1  0.01346437  0.33655280  0.13441458  1
  O  O17  1  0.02324617  0.83343382  0.16066984  1
  O  O18  1  0.25716019  0.06964339  0.15822529  1
  O  O19  1  0.23121292  0.40889337  0.61634159  1
  O  O20  1  0.26879979  0.90890952  0.61633793  1
  O  O21  1  0.24282678  0.56964923  0.15821797  1
  O  O22  1  0.47676685  0.33344104  0.16065889  1
  O  O23  1  0.48652345  0.83656319  0.13441599  1
  O  O24  1  0.51348406  0.16343641  0.63441615  1
  O  O25  1  0.52324702  0.66656071  0.66067540  1
  O  O26  1  0.75716366  0.43033840  0.65821873  1
  O  O27  1  0.73122362  0.09110435  0.11631613  1
  O  O28  1  0.76878712  0.59109174  0.11633906  1
  O  O29  1  0.74283875  0.93036192  0.65820328  1
  O  O30  1  0.97678444  0.16656102  0.66066195  1
  O  O31  1  0.98651488  0.66344408  0.63440901  1
