# generated using pymatgen
data_NbAsO4
_symmetry_space_group_name_H-M   'P 1'
_cell_length_a   5.57787211
_cell_length_b   5.06308567
_cell_length_c   12.05635486
_cell_angle_alpha   90.00000000
_cell_angle_beta   90.00000000
_cell_angle_gamma   90.00000000
_symmetry_Int_Tables_number   1
_chemical_formula_structural   NbAsO4
_chemical_formula_sum   'Nb4 As4 O16'
_cell_volume   340.48646356
_cell_formula_units_Z   4
loop_
 _symmetry_equiv_pos_site_id
 _symmetry_equiv_pos_as_xyz
  1  'x, y, z'
loop_
 _atom_site_type_symbol
 _atom_site_label
 _atom_site_symmetry_multiplicity
 _atom_site_fract_x
 _atom_site_fract_y
 _atom_site_fract_z
 _atom_site_occupancy
  Nb  Nb0  1  0.11200297  0.98387106  0.99622531  1
  Nb  Nb1  1  0.38799703  0.48387106  0.49622531  1
  Nb  Nb2  1  0.61200297  0.51612894  0.99622531  1
  Nb  Nb3  1  0.88799703  0.01612894  0.49622531  1
  As  As4  1  0.06000186  0.59805232  0.74466960  1
  As  As5  1  0.43999814  0.09805232  0.24466960  1
  As  As6  1  0.56000186  0.90194768  0.74466960  1
  As  As7  1  0.93999814  0.40194768  0.24466960  1
  O  O8  1  0.08007267  0.28716380  0.55733656  1
  O  O9  1  0.12657394  0.77161400  0.46272650  1
  O  O10  1  0.14987320  0.16728484  0.16603149  1
  O  O11  1  0.16004278  0.83947573  0.84512154  1
  O  O12  1  0.33995722  0.33947573  0.34512154  1
  O  O13  1  0.35012680  0.66728484  0.66603149  1
  O  O14  1  0.37342606  0.27161400  0.96272650  1
  O  O15  1  0.41992733  0.78716380  0.05733656  1
  O  O16  1  0.58007267  0.21283620  0.55733656  1
  O  O17  1  0.62657394  0.72838600  0.46272650  1
  O  O18  1  0.64987320  0.33271516  0.16603149  1
  O  O19  1  0.66004278  0.66052427  0.84512154  1
  O  O20  1  0.83995722  0.16052427  0.34512154  1
  O  O21  1  0.85012680  0.83271516  0.66603149  1
  O  O22  1  0.87342606  0.22838600  0.96272650  1
  O  O23  1  0.91992733  0.71283620  0.05733656  1
