# generated using pymatgen
data_Li2AlNiO4
_symmetry_space_group_name_H-M   'P 1'
_cell_length_a   4.98207546
_cell_length_b   6.40351893
_cell_length_c   5.36602601
_cell_angle_alpha   90.00000000
_cell_angle_beta   90.00000000
_cell_angle_gamma   89.97037151
_symmetry_Int_Tables_number   1
_chemical_formula_structural   Li2AlNiO4
_chemical_formula_sum   'Li4 Al2 Ni2 O8'
_cell_volume   171.19130950
_cell_formula_units_Z   2
loop_
 _symmetry_equiv_pos_site_id
 _symmetry_equiv_pos_as_xyz
  1  'x, y, z'
loop_
 _atom_site_type_symbol
 _atom_site_label
 _atom_site_symmetry_multiplicity
 _atom_site_fract_x
 _atom_site_fract_y
 _atom_site_fract_z
 _atom_site_occupancy
  Li  Li0  1  0.49432787  0.24827015  0.32900511  1
  Li  Li1  1  0.49718742  0.99521206  0.83147247  1
  Li  Li2  1  0.99432787  0.74827015  0.67099489  1
  Li  Li3  1  0.99718742  0.49521206  0.16852753  1
  Al  Al4  1  0.00375290  0.24592017  0.67321584  1
  Al  Al5  1  0.50375290  0.74592017  0.32678416  1
  Ni  Ni6  1  0.00169815  0.00009089  0.17207617  1
  Ni  Ni7  1  0.50169815  0.50009089  0.82792383  1
  O  O8  1  0.36156035  0.25941664  0.68487402  1
  O  O9  1  0.37597423  0.97686558  0.18630347  1
  O  O10  1  0.39979366  0.51833914  0.16099150  1
  O  O11  1  0.40000542  0.73298537  0.64418637  1
  O  O12  1  0.86156035  0.75941664  0.31512598  1
  O  O13  1  0.87597423  0.47686558  0.81369653  1
  O  O14  1  0.89979366  0.01833914  0.83900850  1
  O  O15  1  0.90000542  0.23298537  0.35581363  1
