# generated using pymatgen
data_Li2Ni(PO3)4
_symmetry_space_group_name_H-M   'P 1'
_cell_length_a   6.53503242
_cell_length_b   6.53503242
_cell_length_c   7.17954007
_cell_angle_alpha   118.17473434
_cell_angle_beta   117.80594001
_cell_angle_gamma   88.21136935
_symmetry_Int_Tables_number   1
_chemical_formula_structural   Li2Ni(PO3)4
_chemical_formula_sum   'Li2 Ni1 P4 O12'
_cell_volume   231.94216070
_cell_formula_units_Z   1
loop_
 _symmetry_equiv_pos_site_id
 _symmetry_equiv_pos_as_xyz
  1  'x, y, z'
loop_
 _atom_site_type_symbol
 _atom_site_label
 _atom_site_symmetry_multiplicity
 _atom_site_fract_x
 _atom_site_fract_y
 _atom_site_fract_z
 _atom_site_occupancy
  Li  Li0  1  0.35214063  0.35214063  0.00000000  1
  Li  Li1  1  0.64448292  0.64448292  0.00000000  1
  Ni  Ni2  1  0.69049685  0.19049685  0.50000000  1
  P  P3  1  0.85292741  0.26217870  0.01400235  1
  P  P4  1  0.15138469  0.12672627  0.37126234  1
  P  P5  1  0.75546293  0.78012235  0.62873766  1
  P  P6  1  0.24817636  0.83892606  0.98599765  1
  O  O7  1  0.69657060  0.40520782  0.09389153  1
  O  O8  1  0.09218488  0.29494970  0.25271965  1
  O  O9  1  0.93798770  0.31846422  0.87624215  1
  O  O10  1  0.40868189  0.21401233  0.56837526  1
  O  O11  1  0.96276815  0.08975249  0.42144931  1
  O  O12  1  0.66830318  0.54131784  0.57855069  1
  O  O13  1  0.64563607  0.84030663  0.43162474  1
  O  O14  1  0.44222307  0.06174655  0.12375785  1
  O  O15  1  0.11914019  0.86820201  0.14031885  1
  O  O16  1  0.72788315  0.97882134  0.85968115  1
  O  O17  1  0.31131729  0.60267907  0.90610847  1
  O  O18  1  0.04223005  0.83946423  0.74728035  1
