# generated using pymatgen
data_V2Se9
_symmetry_space_group_name_H-M   'P 1'
_cell_length_a   8.52551483
_cell_length_b   8.63793735
_cell_length_c   8.63793735
_cell_angle_alpha   101.47749278
_cell_angle_beta   96.14080650
_cell_angle_gamma   96.14080649
_symmetry_Int_Tables_number   1
_chemical_formula_structural   V2Se9
_chemical_formula_sum   'V4 Se18'
_cell_volume   614.43161832
_cell_formula_units_Z   2
loop_
 _symmetry_equiv_pos_site_id
 _symmetry_equiv_pos_as_xyz
  1  'x, y, z'
loop_
 _atom_site_type_symbol
 _atom_site_label
 _atom_site_symmetry_multiplicity
 _atom_site_fract_x
 _atom_site_fract_y
 _atom_site_fract_z
 _atom_site_occupancy
  V  V0  1  0.08517435  0.13608321  0.59961786  1
  V  V1  1  0.41482565  0.40038214  0.86391679  1
  V  V2  1  0.91482565  0.86391679  0.40038214  1
  V  V3  1  0.58517435  0.59961786  0.13608321  1
  Se  Se4  1  0.52846012  0.30130697  0.60615736  1
  Se  Se5  1  0.97153988  0.39384264  0.69869303  1
  Se  Se6  1  0.62053077  0.89845345  0.29519592  1
  Se  Se7  1  0.87946923  0.70480408  0.10154655  1
  Se  Se8  1  0.37946923  0.10154655  0.70480408  1
  Se  Se9  1  0.12053077  0.29519592  0.89845345  1
  Se  Se10  1  0.55686410  0.67230938  0.86136464  1
  Se  Se11  1  0.94313590  0.13863536  0.32769062  1
  Se  Se12  1  0.44313590  0.32769062  0.13863536  1
  Se  Se13  1  0.05686410  0.86136464  0.67230938  1
  Se  Se14  1  0.33495224  0.66618734  0.99372361  1
  Se  Se15  1  0.16504776  0.00627639  0.33381266  1
  Se  Se16  1  0.66504776  0.33381266  0.00627639  1
  Se  Se17  1  0.83495224  0.99372361  0.66618734  1
  Se  Se18  1  0.02846012  0.60615736  0.30130697  1
  Se  Se19  1  0.47153988  0.69869303  0.39384264  1
  Se  Se20  1  0.25000000  0.40605882  0.59394118  1
  Se  Se21  1  0.75000000  0.59394118  0.40605882  1
