# generated using pymatgen
data_PBr5
_symmetry_space_group_name_H-M   'P 1'
_cell_length_a   5.97971829
_cell_length_b   8.79649173
_cell_length_c   17.40530311
_cell_angle_alpha   90.00000000
_cell_angle_beta   90.00000000
_cell_angle_gamma   90.00000000
_symmetry_Int_Tables_number   1
_chemical_formula_structural   PBr5
_chemical_formula_sum   'P4 Br20'
_cell_volume   915.52838571
_cell_formula_units_Z   4
loop_
 _symmetry_equiv_pos_site_id
 _symmetry_equiv_pos_as_xyz
  1  'x, y, z'
loop_
 _atom_site_type_symbol
 _atom_site_label
 _atom_site_symmetry_multiplicity
 _atom_site_fract_x
 _atom_site_fract_y
 _atom_site_fract_z
 _atom_site_occupancy
  P  P0  1  0.03787432  0.75000000  0.36361789  1
  P  P1  1  0.03787432  0.25000000  0.13638211  1
  P  P2  1  0.96212568  0.25000000  0.63638211  1
  P  P3  1  0.96212568  0.75000000  0.86361789  1
  Br  Br4  1  0.17003574  0.75000000  0.75825692  1
  Br  Br5  1  0.17003574  0.25000000  0.74174308  1
  Br  Br6  1  0.82996426  0.25000000  0.24174308  1
  Br  Br7  1  0.82996426  0.75000000  0.25825692  1
  Br  Br8  1  0.75386626  0.95885558  0.86828051  1
  Br  Br9  1  0.75386626  0.04114442  0.63171949  1
  Br  Br10  1  0.24613374  0.45885558  0.13171949  1
  Br  Br11  1  0.24613374  0.54114442  0.36828051  1
  Br  Br12  1  0.24613374  0.04114442  0.13171949  1
  Br  Br13  1  0.24613374  0.95885558  0.36828051  1
  Br  Br14  1  0.75386626  0.54114442  0.86828051  1
  Br  Br15  1  0.75386626  0.45885558  0.63171949  1
  Br  Br16  1  0.48364306  0.75000000  0.61324918  1
  Br  Br17  1  0.48364306  0.25000000  0.88675082  1
  Br  Br18  1  0.51635694  0.25000000  0.38675082  1
  Br  Br19  1  0.51635694  0.75000000  0.11324918  1
  Br  Br20  1  0.81203383  0.75000000  0.46359120  1
  Br  Br21  1  0.81203383  0.25000000  0.03640880  1
  Br  Br22  1  0.18796617  0.25000000  0.53640880  1
  Br  Br23  1  0.18796617  0.75000000  0.96359120  1
