# generated using pymatgen
data_Li2CoOF3
_symmetry_space_group_name_H-M   'P 1'
_cell_length_a   5.91339881
_cell_length_b   5.91336301
_cell_length_c   8.54295259
_cell_angle_alpha   89.99510928
_cell_angle_beta   89.99635479
_cell_angle_gamma   90.00169299
_symmetry_Int_Tables_number   1
_chemical_formula_structural   Li2CoOF3
_chemical_formula_sum   'Li8 Co4 O4 F12'
_cell_volume   298.73059478
_cell_formula_units_Z   4
loop_
 _symmetry_equiv_pos_site_id
 _symmetry_equiv_pos_as_xyz
  1  'x, y, z'
loop_
 _atom_site_type_symbol
 _atom_site_label
 _atom_site_symmetry_multiplicity
 _atom_site_fract_x
 _atom_site_fract_y
 _atom_site_fract_z
 _atom_site_occupancy
  Li  Li0  1  0.24387977  0.25652001  0.37375106  1
  Li  Li1  1  0.25651719  0.75611090  0.12375102  1
  Li  Li2  1  0.25766518  0.50652521  0.75413729  1
  Li  Li3  1  0.49347230  0.25766401  0.00414204  1
  Li  Li4  1  0.50652279  0.74234156  0.50414708  1
  Li  Li5  1  0.74234168  0.49348225  0.25413770  1
  Li  Li6  1  0.74347772  0.24387278  0.62374398  1
  Li  Li7  1  0.75611926  0.74349167  0.87375512  1
  Co  Co8  1  0.01156703  0.24084872  0.00941542  1
  Co  Co9  1  0.98845260  0.75912301  0.50941472  1
  Co  Co10  1  0.24083382  0.98841416  0.75939857  1
  Co  Co11  1  0.75914879  0.01158663  0.25940959  1
  O  O12  1  0.02489844  0.77235403  0.73389126  1
  O  O13  1  0.22766260  0.02491393  0.98389703  1
  O  O14  1  0.77234760  0.97511007  0.48390891  1
  O  O15  1  0.97508434  0.22764603  0.23391228  1
  F  F16  1  0.01188227  0.25703619  0.76043651  1
  F  F17  1  0.25702909  0.98811754  0.51043978  1
  F  F18  1  0.24320386  0.49072655  0.99574164  1
  F  F19  1  0.23841806  0.52979683  0.49760167  1
  F  F20  1  0.47020382  0.23841253  0.74761403  1
  F  F21  1  0.49074055  0.75680744  0.74577247  1
  F  F22  1  0.50925342  0.24319639  0.24575929  1
  F  F23  1  0.52979171  0.76158804  0.24759401  1
  F  F24  1  0.75682881  0.50924523  0.49576553  1
  F  F25  1  0.76156607  0.47023453  -0.00239783  1
  F  F26  1  0.74294629  0.01187786  0.01043297  1
  F  F27  1  0.98814494  0.74295589  0.26043083  1
