# generated using pymatgen
data_LiMn(PO3)3
_symmetry_space_group_name_H-M   'P 1'
_cell_length_a   10.30487347
_cell_length_b   11.74210802
_cell_length_c   5.39371599
_cell_angle_alpha   90.00000000
_cell_angle_beta   90.00000000
_cell_angle_gamma   90.00000000
_symmetry_Int_Tables_number   1
_chemical_formula_structural   LiMn(PO3)3
_chemical_formula_sum   'Li4 Mn4 P12 O36'
_cell_volume   652.64469095
_cell_formula_units_Z   4
loop_
 _symmetry_equiv_pos_site_id
 _symmetry_equiv_pos_as_xyz
  1  'x, y, z'
loop_
 _atom_site_type_symbol
 _atom_site_label
 _atom_site_symmetry_multiplicity
 _atom_site_fract_x
 _atom_site_fract_y
 _atom_site_fract_z
 _atom_site_occupancy
  Li  Li0  1  0.03788750  0.86368357  0.57359559  1
  Li  Li1  1  0.46211250  0.13631643  0.07359559  1
  Li  Li2  1  0.53788750  0.63631643  0.42640441  1
  Li  Li3  1  0.96211250  0.36368357  0.92640441  1
  Mn  Mn4  1  0.10947784  0.08913476  0.10958065  1
  Mn  Mn5  1  0.39052216  0.91086524  0.60958065  1
  Mn  Mn6  1  0.60947784  0.41086524  0.89041935  1
  Mn  Mn7  1  0.89052216  0.58913476  0.39041935  1
  P  P8  1  0.07690423  0.62253754  0.88242072  1
  P  P9  1  0.13981267  0.36601639  0.37947867  1
  P  P10  1  0.21476201  0.81700067  0.09216577  1
  P  P11  1  0.28523799  0.18299933  0.59216577  1
  P  P12  1  0.36018733  0.63398361  0.87947867  1
  P  P13  1  0.42309577  0.37746246  0.38242072  1
  P  P14  1  0.57690423  0.87746246  0.11757928  1
  P  P15  1  0.63981267  0.13398361  0.62052133  1
  P  P16  1  0.71476201  0.68299933  0.90783423  1
  P  P17  1  0.78523799  0.31700067  0.40783423  1
  P  P18  1  0.86018733  0.86601639  0.12052133  1
  P  P19  1  0.92309577  0.12253754  0.61757928  1
  O  O20  1  0.98740070  0.54177160  0.01547090  1
  O  O21  1  0.03635140  0.66901532  0.63347854  1
  O  O22  1  0.04021238  0.44460706  0.48768741  1
  O  O23  1  0.09542347  0.72856463  0.07301484  1
  O  O24  1  0.11721953  0.30552651  0.13836686  1
  O  O25  1  0.16598936  0.27076857  0.59369937  1
  O  O26  1  0.20937608  0.87465473  0.34090379  1
  O  O27  1  0.21842316  0.89037203  0.86123395  1
  O  O28  1  0.22060569  0.56849484  0.87485196  1
  O  O29  1  0.27939431  0.43150516  0.37485196  1
  O  O30  1  0.28157684  0.10962797  0.36123395  1
  O  O31  1  0.29062392  0.12534527  0.84090379  1
  O  O32  1  0.33401064  0.72923143  0.09369937  1
  O  O33  1  0.38278047  0.69447349  0.63836686  1
  O  O34  1  0.40457653  0.27143537  0.57301484  1
  O  O35  1  0.45978762  0.55539294  0.98768741  1
  O  O36  1  0.46364860  0.33098468  0.13347854  1
  O  O37  1  0.51259930  0.45822840  0.51547090  1
  O  O38  1  0.48740070  0.95822840  0.98452910  1
  O  O39  1  0.53635140  0.83098468  0.36652146  1
  O  O40  1  0.54021238  0.05539294  0.51231259  1
  O  O41  1  0.59542347  0.77143537  0.92698516  1
  O  O42  1  0.61721953  0.19447349  0.86163314  1
  O  O43  1  0.66598936  0.22923143  0.40630063  1
  O  O44  1  0.70937608  0.62534527  0.65909621  1
  O  O45  1  0.71842316  0.60962797  0.13876605  1
  O  O46  1  0.72060569  0.93150516  0.12514804  1
  O  O47  1  0.77939431  0.06849484  0.62514804  1
  O  O48  1  0.78157684  0.39037203  0.63876605  1
  O  O49  1  0.79062392  0.37465473  0.15909621  1
  O  O50  1  0.83401064  0.77076857  0.90630063  1
  O  O51  1  0.88278047  0.80552651  0.36163314  1
  O  O52  1  0.90457653  0.22856463  0.42698516  1
  O  O53  1  0.95978762  0.94460706  0.01231259  1
  O  O54  1  0.96364860  0.16901532  0.86652146  1
  O  O55  1  0.01259930  0.04177160  0.48452910  1
