# generated using pymatgen
data_SiH3F
_symmetry_space_group_name_H-M   'P 1'
_cell_length_a   4.86588465
_cell_length_b   7.99410915
_cell_length_c   7.92661086
_cell_angle_alpha   90.00000000
_cell_angle_beta   98.71065780
_cell_angle_gamma   90.00000000
_symmetry_Int_Tables_number   1
_chemical_formula_structural   SiH3F
_chemical_formula_sum   'Si4 H12 F4'
_cell_volume   304.77619298
_cell_formula_units_Z   4
loop_
 _symmetry_equiv_pos_site_id
 _symmetry_equiv_pos_as_xyz
  1  'x, y, z'
loop_
 _atom_site_type_symbol
 _atom_site_label
 _atom_site_symmetry_multiplicity
 _atom_site_fract_x
 _atom_site_fract_y
 _atom_site_fract_z
 _atom_site_occupancy
  H  H0  1  0.00474975  0.78160865  0.21981788  1
  H  H1  1  0.49525025  0.28160865  0.28018212  1
  H  H2  1  0.99525025  0.21839135  0.78018212  1
  H  H3  1  0.50474975  0.71839135  0.71981788  1
  H  H4  1  0.44084229  0.88130206  0.12835765  1
  H  H5  1  0.05915771  0.38130206  0.37164235  1
  H  H6  1  0.55915771  0.11869794  0.87164235  1
  H  H7  1  0.94084229  0.61869794  0.62835765  1
  H  H8  1  0.77484961  0.90613216  0.56129387  1
  H  H9  1  0.72515039  0.40613216  0.93870613  1
  H  H10  1  0.22515039  0.09386784  0.43870613  1
  H  H11  1  0.27484961  0.59386784  0.06129387  1
  F  F12  1  0.01879460  0.83438487  0.90934533  1
  F  F13  1  0.48120540  0.33438487  0.59065467  1
  F  F14  1  0.98120540  0.16561513  0.09065467  1
  F  F15  1  0.51879460  0.66561513  0.40934533  1
  Si  Si16  1  0.19559909  0.76984705  0.09092251  1
  Si  Si17  1  0.30440091  0.26984705  0.40907749  1
  Si  Si18  1  0.80440091  0.23015295  0.90907749  1
  Si  Si19  1  0.69559909  0.73015295  0.59092251  1
