# generated using pymatgen
data_LiYS2
_symmetry_space_group_name_H-M   'P 1'
_cell_length_a   7.70796473
_cell_length_b   10.26126512
_cell_length_c   6.77263267
_cell_angle_alpha   29.09168658
_cell_angle_beta   55.30225989
_cell_angle_gamma   41.28737003
_symmetry_Int_Tables_number   1
_chemical_formula_structural   LiYS2
_chemical_formula_sum   'Li2 Y2 S4'
_cell_volume   165.35775634
_cell_formula_units_Z   2
loop_
 _symmetry_equiv_pos_site_id
 _symmetry_equiv_pos_as_xyz
  1  'x, y, z'
loop_
 _atom_site_type_symbol
 _atom_site_label
 _atom_site_symmetry_multiplicity
 _atom_site_fract_x
 _atom_site_fract_y
 _atom_site_fract_z
 _atom_site_occupancy
  Li  Li0  1  0.50000905  0.99999995  0.99998891  1
  Li  Li1  1  0.24999103  0.49999973  0.00001142  1
  S  S2  1  0.24559370  0.99999499  0.50888027  1
  S  S3  1  0.99563092  0.49997699  0.50884770  1
  S  S4  1  0.75436863  0.00002377  0.49115135  1
  S  S5  1  0.50440663  0.50000449  0.49112066  1
  Y  Y6  1  0.99998372  0.00002181  0.99997300  1
  Y  Y7  1  0.75001632  0.49997828  0.00002668  1
