# generated using pymatgen
data_Cs2ZrCl6
_symmetry_space_group_name_H-M   'P 1'
_cell_length_a   7.63645840
_cell_length_b   7.63645865
_cell_length_c   7.63645857
_cell_angle_alpha   60.00000039
_cell_angle_beta   59.99999930
_cell_angle_gamma   59.99999785
_symmetry_Int_Tables_number   1
_chemical_formula_structural   Cs2ZrCl6
_chemical_formula_sum   'Cs2 Zr1 Cl6'
_cell_volume   314.89153691
_cell_formula_units_Z   1
loop_
 _symmetry_equiv_pos_site_id
 _symmetry_equiv_pos_as_xyz
  1  'x, y, z'
loop_
 _atom_site_type_symbol
 _atom_site_label
 _atom_site_symmetry_multiplicity
 _atom_site_fract_x
 _atom_site_fract_y
 _atom_site_fract_z
 _atom_site_occupancy
  Cs  Cs0  1  0.25000000  0.25000000  0.25000000  1
  Cs  Cs1  1  0.75000000  0.75000000  0.75000000  1
  Zr  Zr2  1  0.00000000  0.00000000  0.00000000  1
  Cl  Cl3  1  0.76911043  0.76911043  0.23088957  1
  Cl  Cl4  1  0.76911043  0.23088957  0.23088957  1
  Cl  Cl5  1  0.23088957  0.76911043  0.76911043  1
  Cl  Cl6  1  0.23088957  0.23088957  0.76911043  1
  Cl  Cl7  1  0.76911043  0.23088957  0.76911043  1
  Cl  Cl8  1  0.23088957  0.76911043  0.23088957  1
