# generated using pymatgen
data_LiSnPCO7
_symmetry_space_group_name_H-M   'P 1'
_cell_length_a   8.95683671
_cell_length_b   6.54830448
_cell_length_c   5.23434996
_cell_angle_alpha   90.00000000
_cell_angle_beta   86.05729356
_cell_angle_gamma   90.00000000
_symmetry_Int_Tables_number   1
_chemical_formula_structural   LiSnPCO7
_chemical_formula_sum   'Li2 Sn2 P2 C2 O14'
_cell_volume   306.27899723
_cell_formula_units_Z   2
loop_
 _symmetry_equiv_pos_site_id
 _symmetry_equiv_pos_as_xyz
  1  'x, y, z'
loop_
 _atom_site_type_symbol
 _atom_site_label
 _atom_site_symmetry_multiplicity
 _atom_site_fract_x
 _atom_site_fract_y
 _atom_site_fract_z
 _atom_site_occupancy
  Li  Li0  1  0.16159487  0.53124144  0.23483113  1
  Li  Li1  1  0.83840513  0.03124144  0.76516887  1
  Sn  Sn2  1  0.34238396  0.75172535  0.78885508  1
  Sn  Sn3  1  0.65761604  0.25172535  0.21114492  1
  P  P4  1  0.42850830  0.24901225  0.73069067  1
  P  P5  1  0.57149170  0.74901225  0.26930933  1
  C  C6  1  0.06165299  0.74018995  0.72719847  1
  C  C7  1  0.93834701  0.24018995  0.27280153  1
  O  O8  1  0.07166173  0.27012724  0.30938200  1
  O  O9  1  0.11878909  0.73772070  0.95701703  1
  O  O10  1  0.16944485  0.71668047  0.53610371  1
  O  O11  1  0.32979608  0.06284873  0.80257346  1
  O  O12  1  0.33745108  0.43557356  0.82952601  1
  O  O13  1  0.41665937  0.74065328  0.15184170  1
  O  O14  1  0.46117775  0.26207802  0.43383615  1
  O  O15  1  0.53882225  0.76207802  0.56616385  1
  O  O16  1  0.58334063  0.24065328  0.84815830  1
  O  O17  1  0.66254892  0.93557356  0.17047399  1
  O  O18  1  0.67020392  0.56284873  0.19742654  1
  O  O19  1  0.83055515  0.21668047  0.46389629  1
  O  O20  1  0.88121091  0.23772070  0.04298297  1
  O  O21  1  0.92833827  0.77012724  0.69061800  1
