# generated using pymatgen
data_Na8TiO6
_symmetry_space_group_name_H-M   'P 1'
_cell_length_a   13.93894333
_cell_length_b   6.63069986
_cell_length_c   9.59246266
_cell_angle_alpha   90.00000000
_cell_angle_beta   90.00000000
_cell_angle_gamma   90.00000000
_symmetry_Int_Tables_number   1
_chemical_formula_structural   Na8TiO6
_chemical_formula_sum   'Na32 Ti4 O24'
_cell_volume   886.58287776
_cell_formula_units_Z   4
loop_
 _symmetry_equiv_pos_site_id
 _symmetry_equiv_pos_as_xyz
  1  'x, y, z'
loop_
 _atom_site_type_symbol
 _atom_site_label
 _atom_site_symmetry_multiplicity
 _atom_site_fract_x
 _atom_site_fract_y
 _atom_site_fract_z
 _atom_site_occupancy
  Na  Na0  1  0.01255357  0.51204384  0.77383760  1
  Na  Na1  1  0.06294957  0.27294694  0.52469005  1
  Na  Na2  1  0.07117588  0.91775499  0.18962870  1
  Na  Na3  1  0.07731943  0.94008946  0.83053332  1
  Na  Na4  1  0.11542449  0.33664850  0.01142673  1
  Na  Na5  1  0.21983224  0.55046548  0.81779090  1
  Na  Na6  1  0.22906444  0.57900321  0.19855771  1
  Na  Na7  1  0.24972467  0.92107453  0.00743326  1
  Na  Na8  1  0.25027533  0.42107453  0.50743326  1
  Na  Na9  1  0.27093556  0.07900321  0.69855771  1
  Na  Na10  1  0.28016776  0.05046548  0.31779090  1
  Na  Na11  1  0.38457551  0.83664850  0.51142673  1
  Na  Na12  1  0.42268057  0.44008946  0.33053332  1
  Na  Na13  1  0.42882412  0.41775499  0.68962870  1
  Na  Na14  1  0.43705043  0.77294694  0.02469005  1
  Na  Na15  1  0.48744643  0.01204384  0.27383760  1
  Na  Na16  1  0.51255357  0.98795616  0.77383760  1
  Na  Na17  1  0.56294957  0.22705306  0.52469005  1
  Na  Na18  1  0.57117588  0.58224501  0.18962870  1
  Na  Na19  1  0.57731943  0.55991054  0.83053332  1
  Na  Na20  1  0.61542449  0.16335150  0.01142673  1
  Na  Na21  1  0.71983224  0.94953452  0.81779090  1
  Na  Na22  1  0.72906444  0.92099679  0.19855771  1
  Na  Na23  1  0.74972467  0.57892547  0.00743326  1
  Na  Na24  1  0.75027533  0.07892547  0.50743326  1
  Na  Na25  1  0.77093556  0.42099679  0.69855771  1
  Na  Na26  1  0.78016776  0.44953452  0.31779090  1
  Na  Na27  1  0.88457551  0.66335150  0.51142673  1
  Na  Na28  1  0.92268057  0.05991054  0.33053332  1
  Na  Na29  1  0.92882412  0.08224501  0.68962870  1
  Na  Na30  1  0.93705043  0.72705306  0.02469005  1
  Na  Na31  1  0.98744643  0.48795616  0.27383760  1
  Ti  Ti32  1  0.12354772  0.78076389  0.51236536  1
  Ti  Ti33  1  0.37645228  0.28076389  0.01236536  1
  Ti  Ti34  1  0.62354772  0.71923611  0.51236536  1
  Ti  Ti35  1  0.87645228  0.21923611  0.01236536  1
  O  O36  1  0.01681646  0.78964341  0.62781919  1
  O  O37  1  0.12080750  0.55820060  0.39665564  1
  O  O38  1  0.11836932  0.70913176  0.00546858  1
  O  O39  1  0.12615528  0.25756088  0.75836732  1
  O  O40  1  0.12615400  0.00781743  0.40343860  1
  O  O41  1  0.23445565  0.74983581  0.61668606  1
  O  O42  1  0.26554435  0.24983581  0.11668606  1
  O  O43  1  0.37384600  0.50781743  0.90343860  1
  O  O44  1  0.37384472  0.75756088  0.25836732  1
  O  O45  1  0.38163068  0.20913176  0.50546858  1
  O  O46  1  0.37919250  0.05820060  0.89665564  1
  O  O47  1  0.48318354  0.28964341  0.12781919  1
  O  O48  1  0.51681646  0.71035659  0.62781919  1
  O  O49  1  0.62080750  0.94179940  0.39665564  1
  O  O50  1  0.61836932  0.79086824  0.00546858  1
  O  O51  1  0.62615528  0.24243912  0.75836732  1
  O  O52  1  0.62615400  0.49218257  0.40343860  1
  O  O53  1  0.73445565  0.75016419  0.61668606  1
  O  O54  1  0.76554435  0.25016419  0.11668606  1
  O  O55  1  0.87384600  0.99218257  0.90343860  1
  O  O56  1  0.87384472  0.74243912  0.25836732  1
  O  O57  1  0.88163068  0.29086824  0.50546858  1
  O  O58  1  0.87919250  0.44179940  0.89665564  1
  O  O59  1  0.98318354  0.21035659  0.12781919  1
