# generated using pymatgen
data_Sm2CdSe4
_symmetry_space_group_name_H-M   'P 1'
_cell_length_a   7.71403745
_cell_length_b   7.71403796
_cell_length_c   7.71403735
_cell_angle_alpha   110.67624720
_cell_angle_beta   110.67624313
_cell_angle_gamma   107.08715063
_symmetry_Int_Tables_number   1
_chemical_formula_structural   Sm2CdSe4
_chemical_formula_sum   'Sm4 Cd2 Se8'
_cell_volume   352.90841497
_cell_formula_units_Z   2
loop_
 _symmetry_equiv_pos_site_id
 _symmetry_equiv_pos_as_xyz
  1  'x, y, z'
loop_
 _atom_site_type_symbol
 _atom_site_label
 _atom_site_symmetry_multiplicity
 _atom_site_fract_x
 _atom_site_fract_y
 _atom_site_fract_z
 _atom_site_occupancy
  Cd  Cd0  1  0.62500000  0.37500000  0.25000000  1
  Cd  Cd1  1  0.87500000  0.12500000  0.75000000  1
  Se  Se2  1  0.00660470  0.88069618  0.51114696  1
  Se  Se3  1  0.99545774  0.36954923  0.48885304  1
  Se  Se4  1  0.11930382  0.13045077  0.12590851  1
  Se  Se5  1  0.38069618  0.50660470  0.01114696  1
  Se  Se6  1  0.63045077  0.61930382  0.62590851  1
  Se  Se7  1  0.49339530  0.00454226  0.87409149  1
  Se  Se8  1  0.50454226  0.99339530  0.37409149  1
  Se  Se9  1  0.86954923  0.49545774  0.98885304  1
  Sm  Sm10  1  0.11468512  0.75000000  0.86468512  1
  Sm  Sm11  1  0.25000000  0.61468512  0.36468512  1
  Sm  Sm12  1  0.38531488  0.25000000  0.63531488  1
  Sm  Sm13  1  0.75000000  0.88531488  0.13531488  1
