# generated using pymatgen
data_K4V5CdClO15
_symmetry_space_group_name_H-M   'P 1'
_cell_length_a   5.51130706
_cell_length_b   9.25260498
_cell_length_c   9.25260498
_cell_angle_alpha   90.00000000
_cell_angle_beta   90.00000000
_cell_angle_gamma   90.00000000
_symmetry_Int_Tables_number   1
_chemical_formula_structural   K4V5CdClO15
_chemical_formula_sum   'K4 V5 Cd1 Cl1 O15'
_cell_volume   471.82684935
_cell_formula_units_Z   1
loop_
 _symmetry_equiv_pos_site_id
 _symmetry_equiv_pos_as_xyz
  1  'x, y, z'
loop_
 _atom_site_type_symbol
 _atom_site_label
 _atom_site_symmetry_multiplicity
 _atom_site_fract_x
 _atom_site_fract_y
 _atom_site_fract_z
 _atom_site_occupancy
  K  K0  1  0.42149927  0.16665180  0.32411990  1
  K  K1  1  0.42149927  0.67588010  0.16665180  1
  K  K2  1  0.42149927  0.83334820  0.67588010  1
  K  K3  1  0.42149927  0.32411990  0.83334820  1
  V  V4  1  0.89579403  0.61595493  0.85589079  1
  V  V5  1  0.89579403  0.85589079  0.38404507  1
  V  V6  1  0.86462564  0.50000000  0.50000000  1
  V  V7  1  0.89579403  0.14410921  0.61595493  1
  V  V8  1  0.89579403  0.38404507  0.14410921  1
  Cd  Cd9  1  0.84605848  0.00000000  0.00000000  1
  Cl  Cl10  1  0.32060424  0.00000000  0.00000000  1
  O  O11  1  0.77245149  0.54713457  0.69145228  1
  O  O12  1  0.19867730  0.38898445  0.14568870  1
  O  O13  1  0.19867730  0.61101555  0.85431130  1
  O  O14  1  0.79383349  0.12063117  0.78821919  1
  O  O15  1  0.77245149  0.45286543  0.30854772  1
  O  O16  1  0.77725223  0.00000000  0.50000000  1
  O  O17  1  0.19867730  0.14568870  0.61101555  1
  O  O18  1  0.79383349  0.87936883  0.21178081  1
  O  O19  1  0.79383349  0.21178081  0.12063117  1
  O  O20  1  0.79383349  0.78821919  0.87936883  1
  O  O21  1  0.77245149  0.30854772  0.54713457  1
  O  O22  1  0.15899485  0.50000000  0.50000000  1
  O  O23  1  0.77245149  0.69145228  0.45286543  1
  O  O24  1  0.19867730  0.85431130  0.38898445  1
  O  O25  1  0.77725223  0.50000000  0.00000000  1
