# generated using pymatgen
data_CsClO4
_symmetry_space_group_name_H-M   'P 1'
_cell_length_a   5.73153429
_cell_length_b   5.73153404
_cell_length_c   5.73153412
_cell_angle_alpha   59.99988299
_cell_angle_beta   59.99988440
_cell_angle_gamma   59.99988610
_symmetry_Int_Tables_number   1
_chemical_formula_structural   CsClO4
_chemical_formula_sum   'Cs1 Cl1 O4'
_cell_volume   133.13631064
_cell_formula_units_Z   1
loop_
 _symmetry_equiv_pos_site_id
 _symmetry_equiv_pos_as_xyz
  1  'x, y, z'
loop_
 _atom_site_type_symbol
 _atom_site_label
 _atom_site_symmetry_multiplicity
 _atom_site_fract_x
 _atom_site_fract_y
 _atom_site_fract_z
 _atom_site_occupancy
  O  O0  1  0.10441570  0.68675182  0.10441570  1
  O  O1  1  0.68675182  0.10441570  0.10441570  1
  O  O2  1  0.10441570  0.10441570  0.68675182  1
  Cs  Cs3  1  0.49999950  0.49999950  0.49999950  1
  O  O4  1  0.10440967  0.10440967  0.10440967  1
  Cl  Cl5  1  0.00000762  0.00000762  0.00000762  1
