# generated using pymatgen
data_LiMgH3
_symmetry_space_group_name_H-M   'P 1'
_cell_length_a   5.28100409
_cell_length_b   5.28100408
_cell_length_c   5.28100409
_cell_angle_alpha   55.99936267
_cell_angle_beta   55.99936272
_cell_angle_gamma   55.99936268
_symmetry_Int_Tables_number   1
_chemical_formula_structural   LiMgH3
_chemical_formula_sum   'Li2 Mg2 H6'
_cell_volume   94.49164774
_cell_formula_units_Z   2
loop_
 _symmetry_equiv_pos_site_id
 _symmetry_equiv_pos_as_xyz
  1  'x, y, z'
loop_
 _atom_site_type_symbol
 _atom_site_label
 _atom_site_symmetry_multiplicity
 _atom_site_fract_x
 _atom_site_fract_y
 _atom_site_fract_z
 _atom_site_occupancy
  H  H0  1  0.10152736  0.70054947  0.38959983  1
  H  H1  1  0.70054947  0.38959983  0.10152736  1
  H  H2  1  0.38959983  0.10152736  0.70054947  1
  H  H3  1  0.88959983  0.20054947  0.60152736  1
  H  H4  1  0.60152736  0.88959983  0.20054947  1
  H  H5  1  0.20054947  0.60152736  0.88959983  1
  Li  Li6  1  0.28893722  0.28893722  0.28893722  1
  Li  Li7  1  0.78893722  0.78893722  0.78893722  1
  Mg  Mg8  1  0.99918612  0.99918612  0.99918612  1
  Mg  Mg9  1  0.49918612  0.49918612  0.49918612  1
