# generated using pymatgen
data_Mn4Be3Si3SeO12
_symmetry_space_group_name_H-M   'P 1'
_cell_length_a   8.44491254
_cell_length_b   8.44491254
_cell_length_c   8.44491254
_cell_angle_alpha   90.00000000
_cell_angle_beta   90.00000000
_cell_angle_gamma   90.00000000
_symmetry_Int_Tables_number   1
_chemical_formula_structural   Mn4Be3Si3SeO12
_chemical_formula_sum   'Mn8 Be6 Si6 Se2 O24'
_cell_volume   602.26200890
_cell_formula_units_Z   2
loop_
 _symmetry_equiv_pos_site_id
 _symmetry_equiv_pos_as_xyz
  1  'x, y, z'
loop_
 _atom_site_type_symbol
 _atom_site_label
 _atom_site_symmetry_multiplicity
 _atom_site_fract_x
 _atom_site_fract_y
 _atom_site_fract_z
 _atom_site_occupancy
  Be  Be0  1  0.25000057  0.49999995  0.00000000  1
  Be  Be1  1  0.49999995  0.00000000  0.75000052  1
  Be  Be2  1  0.49999995  0.00000000  0.25000057  1
  Be  Be3  1  0.00000000  0.25000057  0.49999995  1
  Be  Be4  1  0.00000000  0.75000052  0.49999995  1
  Be  Be5  1  0.75000052  0.49999995  0.00000000  1
  O  O6  1  0.14277947  0.85716529  0.57810113  1
  O  O7  1  0.64277941  0.07810119  0.35716534  1
  O  O8  1  0.92189871  0.64283456  0.64277941  1
  O  O9  1  0.07810119  0.64283456  0.35722048  1
  O  O10  1  0.64283456  0.64277941  0.92189871  1
  O  O11  1  0.35716534  0.35722048  0.92189871  1
  O  O12  1  0.85722043  0.85716529  0.42189876  1
  O  O13  1  0.85722043  0.14283461  0.57810113  1
  O  O14  1  0.64277941  0.92189871  0.64283456  1
  O  O15  1  0.14283461  0.57810113  0.85722043  1
  O  O16  1  0.57810113  0.14277947  0.85716529  1
  O  O17  1  0.57810113  0.85722043  0.14283461  1
  O  O18  1  0.85716529  0.42189876  0.85722043  1
  O  O19  1  0.42189876  0.85722043  0.85716529  1
  O  O20  1  0.14277947  0.14283461  0.42189876  1
  O  O21  1  0.35722048  0.92189871  0.35716534  1
  O  O22  1  0.35722048  0.07810119  0.64283456  1
  O  O23  1  0.85716529  0.57810113  0.14277947  1
  O  O24  1  0.92189871  0.35716534  0.35722048  1
  O  O25  1  0.64283456  0.35722048  0.07810119  1
  O  O26  1  0.35716534  0.64277941  0.07810119  1
  O  O27  1  0.42189876  0.14277947  0.14283461  1
  O  O28  1  0.14283461  0.42189876  0.14277947  1
  O  O29  1  0.07810119  0.35716534  0.64277941  1
  Si  Si30  1  0.75000052  0.00000000  0.49999995  1
  Si  Si31  1  0.25000057  0.00000000  0.49999995  1
  Si  Si32  1  0.00000000  0.49999995  0.75000052  1
  Si  Si33  1  0.00000000  0.49999995  0.25000057  1
  Si  Si34  1  0.49999995  0.25000057  0.00000000  1
  Si  Si35  1  0.49999995  0.75000052  0.00000000  1
  Mn  Mn36  1  0.67795170  0.67795170  0.67795170  1
  Mn  Mn37  1  0.17795175  0.17795175  0.17795175  1
  Mn  Mn38  1  0.32204819  0.67795170  0.32204819  1
  Mn  Mn39  1  0.32204819  0.32204819  0.67795170  1
  Mn  Mn40  1  0.67795170  0.32204819  0.32204819  1
  Mn  Mn41  1  0.82204814  0.17795175  0.82204814  1
  Mn  Mn42  1  0.17795175  0.82204814  0.82204814  1
  Mn  Mn43  1  0.82204814  0.82204814  0.17795175  1
  Se  Se44  1  0.00000000  0.00000000  0.00000000  1
  Se  Se45  1  0.49999995  0.49999995  0.49999995  1
