# generated using pymatgen
data_CsNaF3
_symmetry_space_group_name_H-M   'P 1'
_cell_length_a   4.15844513
_cell_length_b   7.00255367
_cell_length_c   13.57325086
_cell_angle_alpha   90.00372929
_cell_angle_beta   90.00015762
_cell_angle_gamma   90.00011588
_symmetry_Int_Tables_number   1
_chemical_formula_structural   CsNaF3
_chemical_formula_sum   'Cs4 Na4 F12'
_cell_volume   395.24947022
_cell_formula_units_Z   4
loop_
 _symmetry_equiv_pos_site_id
 _symmetry_equiv_pos_as_xyz
  1  'x, y, z'
loop_
 _atom_site_type_symbol
 _atom_site_label
 _atom_site_symmetry_multiplicity
 _atom_site_fract_x
 _atom_site_fract_y
 _atom_site_fract_z
 _atom_site_occupancy
  Cs  Cs0  1  0.75000533  0.10572227  0.67060903  1
  Cs  Cs1  1  0.24999787  0.89424616  0.32939355  1
  Cs  Cs2  1  0.75000034  0.60572801  0.82939731  1
  Cs  Cs3  1  0.24999966  0.39424120  0.17059950  1
  Na  Na4  1  0.25000050  0.13455435  0.92608937  1
  Na  Na5  1  0.75000327  0.86549082  0.07383586  1
  Na  Na6  1  0.24998564  0.63456359  0.57391180  1
  Na  Na7  1  0.75000529  0.36551999  0.42616594  1
  F  F8  1  0.75000247  0.26512075  0.98882748  1
  F  F9  1  0.24999962  0.73467514  0.01117416  1
  F  F10  1  0.75000388  0.76510831  0.51117736  1
  F  F11  1  0.25000531  0.23468869  0.48882237  1
  F  F12  1  0.25000277  0.99870947  0.08824354  1
  F  F13  1  0.75000021  0.00151200  0.91185567  1
  F  F14  1  0.25000044  0.49870685  0.41175740  1
  F  F15  1  0.75000128  0.50153261  0.58814526  1
  F  F16  1  0.24999609  0.31377931  0.78991122  1
  F  F17  1  0.74999730  0.68615412  0.21011911  1
  F  F18  1  0.24999662  0.81377571  0.71008629  1
  F  F19  1  0.74999611  0.18616563  0.28987981  1
