# generated using pymatgen
data_Ca3Ti2O7
_symmetry_space_group_name_H-M   'P 1'
_cell_length_a   5.46304124
_cell_length_b   5.53728684
_cell_length_c   10.11364528
_cell_angle_alpha   90.00000000
_cell_angle_beta   105.66918802
_cell_angle_gamma   90.00000000
_symmetry_Int_Tables_number   1
_chemical_formula_structural   Ca3Ti2O7
_chemical_formula_sum   'Ca6 Ti4 O14'
_cell_volume   294.57239557
_cell_formula_units_Z   2
loop_
 _symmetry_equiv_pos_site_id
 _symmetry_equiv_pos_as_xyz
  1  'x, y, z'
loop_
 _atom_site_type_symbol
 _atom_site_label
 _atom_site_symmetry_multiplicity
 _atom_site_fract_x
 _atom_site_fract_y
 _atom_site_fract_z
 _atom_site_occupancy
  O  O0  1  0.92823635  0.78489662  0.77319336  1
  O  O1  1  0.07176365  0.28489662  0.22680664  1
  O  O2  1  0.84495701  0.28489662  0.77319336  1
  O  O3  1  0.15504299  0.78489662  0.22680664  1
  O  O4  1  0.45507558  0.70298440  0.83240956  1
  O  O5  1  0.54492442  0.20298440  0.16759044  1
  O  O6  1  0.37733398  0.20298440  0.83240956  1
  O  O7  1  0.62266602  0.70298440  0.16759044  1
  O  O8  1  0.48403053  0.97387073  0.60449752  1
  O  O9  1  0.51596947  0.47387073  0.39550248  1
  O  O10  1  0.82435045  0.01271221  0.00000000  1
  O  O11  1  0.17564955  0.51271221  0.00000000  1
  O  O12  1  0.87953301  0.97387073  0.39550248  1
  O  O13  1  0.12046699  0.47387073  0.60449752  1
  Ca  Ca14  1  0.25358574  0.96118409  0.00000000  1
  Ca  Ca15  1  0.74641426  0.46118409  0.00000000  1
  Ca  Ca16  1  0.92912751  0.54402329  0.37530903  1
  Ca  Ca17  1  0.07087249  0.04402329  0.62469097  1
  Ca  Ca18  1  0.55381848  0.54402329  0.62469097  1
  Ca  Ca19  1  0.44618152  0.04402329  0.37530903  1
  Ti  Ti20  1  0.35123259  0.51147683  0.20002932  1
  Ti  Ti21  1  0.64876741  0.01147683  0.79997068  1
  Ti  Ti22  1  0.84879673  0.01147683  0.20002932  1
  Ti  Ti23  1  0.15120327  0.51147683  0.79997068  1
