# generated using pymatgen
data_Ca2NF
_symmetry_space_group_name_H-M   'P 1'
_cell_length_a   4.91889291
_cell_length_b   4.91889291
_cell_length_c   6.25675865
_cell_angle_alpha   113.13910504
_cell_angle_beta   113.13910504
_cell_angle_gamma   90.01065009
_symmetry_Int_Tables_number   1
_chemical_formula_structural   Ca2NF
_chemical_formula_sum   'Ca4 N2 F2'
_cell_volume   125.85038336
_cell_formula_units_Z   2
loop_
 _symmetry_equiv_pos_site_id
 _symmetry_equiv_pos_as_xyz
  1  'x, y, z'
loop_
 _atom_site_type_symbol
 _atom_site_label
 _atom_site_symmetry_multiplicity
 _atom_site_fract_x
 _atom_site_fract_y
 _atom_site_fract_z
 _atom_site_occupancy
  Ca  Ca0  1  0.14682947  0.39698831  0.29410422  1
  Ca  Ca1  1  0.39698831  0.14682947  0.79410422  1
  Ca  Ca2  1  0.60301169  0.85317053  0.20589578  1
  Ca  Ca3  1  0.85317053  0.60301169  0.70589578  1
  F  F4  1  0.12495972  0.87504028  0.25000000  1
  F  F5  1  0.87504028  0.12495972  0.75000000  1
  N  N6  1  0.37539143  0.62460857  0.75000000  1
  N  N7  1  0.62460857  0.37539143  0.25000000  1
