# generated using pymatgen
data_BaNb3NO7
_symmetry_space_group_name_H-M   'P 1'
_cell_length_a   9.12912228
_cell_length_b   10.79905023
_cell_length_c   3.88873205
_cell_angle_alpha   79.48221164
_cell_angle_beta   89.87433861
_cell_angle_gamma   90.46855891
_symmetry_Int_Tables_number   1
_chemical_formula_structural   BaNb3NO7
_chemical_formula_sum   'Ba2 Nb6 N2 O14'
_cell_volume   376.91736084
_cell_formula_units_Z   2
loop_
 _symmetry_equiv_pos_site_id
 _symmetry_equiv_pos_as_xyz
  1  'x, y, z'
loop_
 _atom_site_type_symbol
 _atom_site_label
 _atom_site_symmetry_multiplicity
 _atom_site_fract_x
 _atom_site_fract_y
 _atom_site_fract_z
 _atom_site_occupancy
  Ba  Ba0  1  0.24951730  0.97935514  0.01172072  1
  Ba  Ba1  1  0.75629277  0.03883236  0.98817165  1
  Nb  Nb2  1  0.05125496  0.26127398  0.37239922  1
  Nb  Nb3  1  0.24349776  0.47908966  0.76477629  1
  Nb  Nb4  1  0.44347608  0.26654187  0.36760115  1
  Nb  Nb5  1  0.55372229  0.73372563  0.63794374  1
  Nb  Nb6  1  0.75556239  0.51447686  0.24846456  1
  Nb  Nb7  1  0.93689756  0.73597977  0.63059482  1
  N  N8  1  0.90320489  0.40492761  0.30312298  1
  N  N9  1  0.93526831  0.12305026  0.44344791  1
  O  O10  1  0.06869508  0.86518241  0.56701732  1
  O  O11  1  0.10456467  0.30932291  0.84989760  1
  O  O12  1  0.09218351  0.59416131  0.70275394  1
  O  O13  1  0.25760126  0.43290569  0.28804045  1
  O  O14  1  0.25876929  0.16204240  0.42516574  1
  O  O15  1  0.40374826  0.59350708  0.71192051  1
  O  O16  1  0.40714327  0.30766543  0.84797574  1
  O  O17  1  0.43237474  0.86969996  0.56722589  1
  O  O18  1  0.56726500  0.13155427  0.43888186  1
  O  O19  1  0.58233784  0.70286465  0.15359070  1
  O  O20  1  0.58670585  0.40828494  0.29758631  1
  O  O21  1  0.74725009  0.58154867  0.71393288  1
  O  O22  1  0.75091286  0.83587424  0.58277364  1
  O  O23  1  0.90738699  0.69575991  0.15235237  1
