# generated using pymatgen
data_WOF3
_symmetry_space_group_name_H-M   'P 1'
_cell_length_a   5.49500290
_cell_length_b   5.55847279
_cell_length_c   9.54624300
_cell_angle_alpha   89.99979900
_cell_angle_beta   90.00009860
_cell_angle_gamma   90.00027622
_symmetry_Int_Tables_number   1
_chemical_formula_structural   WOF3
_chemical_formula_sum   'W4 O4 F12'
_cell_volume   291.57876701
_cell_formula_units_Z   4
loop_
 _symmetry_equiv_pos_site_id
 _symmetry_equiv_pos_as_xyz
  1  'x, y, z'
loop_
 _atom_site_type_symbol
 _atom_site_label
 _atom_site_symmetry_multiplicity
 _atom_site_fract_x
 _atom_site_fract_y
 _atom_site_fract_z
 _atom_site_occupancy
  W  W0  1  0.14014292  0.11540935  0.11379678  1
  W  W1  1  0.35986307  0.88458184  0.61379837  1
  W  W2  1  0.64014190  0.38459147  0.88620521  1
  W  W3  1  0.85985784  0.61541813  0.38619839  1
  O  O4  1  0.12915631  0.70453500  0.49035369  1
  O  O5  1  0.37083544  0.29547170  0.99035205  1
  O  O6  1  0.62915371  0.79546578  0.50964662  1
  O  O7  1  0.87083318  0.20452888  0.00964721  1
  F  F8  1  0.06766046  0.42328049  0.24221143  1
  F  F9  1  0.10083756  0.93092510  0.74366023  1
  F  F10  1  0.28306311  0.18097621  0.52394081  1
  F  F11  1  0.21694713  0.81903375  0.02393789  1
  F  F12  1  0.39916444  0.06906305  0.24365499  1
  F  F13  1  0.43233571  0.57672507  0.74221658  1
  F  F14  1  0.56766299  0.07671920  0.75778903  1
  F  F15  1  0.60083507  0.56907012  0.25633917  1
  F  F16  1  0.78305972  0.31902406  0.47605950  1
  F  F17  1  0.71694928  0.68096653  0.97606262  1
  F  F18  1  0.89916746  0.43093852  0.75634609  1
  F  F19  1  0.93233269  0.92327575  0.25778333  1
