# generated using pymatgen
data_Ag3SI
_symmetry_space_group_name_H-M   'P 1'
_cell_length_a   4.95772310
_cell_length_b   4.95772310
_cell_length_c   4.95772310
_cell_angle_alpha   89.90935692
_cell_angle_beta   89.90935692
_cell_angle_gamma   89.90935692
_symmetry_Int_Tables_number   1
_chemical_formula_structural   Ag3SI
_chemical_formula_sum   'Ag3 S1 I1'
_cell_volume   121.85550996
_cell_formula_units_Z   1
loop_
 _symmetry_equiv_pos_site_id
 _symmetry_equiv_pos_as_xyz
  1  'x, y, z'
loop_
 _atom_site_type_symbol
 _atom_site_label
 _atom_site_symmetry_multiplicity
 _atom_site_fract_x
 _atom_site_fract_y
 _atom_site_fract_z
 _atom_site_occupancy
  S  S0  1  0.53080409  0.53080409  0.53080409  1
  Ag  Ag1  1  0.02708728  0.52598120  0.38191944  1
  Ag  Ag2  1  0.38191944  0.02708728  0.52598120  1
  Ag  Ag3  1  0.52598120  0.38191944  0.02708728  1
  I  I4  1  0.99820798  0.99820798  0.99820798  1
