# generated using pymatgen
data_Li2MnWO6
_symmetry_space_group_name_H-M   'P 1'
_cell_length_a   5.33248567
_cell_length_b   5.33254560
_cell_length_c   9.37214124
_cell_angle_alpha   28.50562429
_cell_angle_beta   51.71500949
_cell_angle_gamma   57.01215158
_symmetry_Int_Tables_number   1
_chemical_formula_structural   Li2MnWO6
_chemical_formula_sum   'Li2 Mn1 W1 O6'
_cell_volume   99.83440953
_cell_formula_units_Z   1
loop_
 _symmetry_equiv_pos_site_id
 _symmetry_equiv_pos_as_xyz
  1  'x, y, z'
loop_
 _atom_site_type_symbol
 _atom_site_label
 _atom_site_symmetry_multiplicity
 _atom_site_fract_x
 _atom_site_fract_y
 _atom_site_fract_z
 _atom_site_occupancy
  Li  Li0  1  0.28856355  0.99995260  0.28853243  1
  Li  Li1  1  0.77287731  0.00000723  0.77282981  1
  Mn  Mn2  1  0.00066628  0.00000731  0.00065727  1
  W  W3  1  0.50174609  0.00002105  0.50172392  1
  O  O4  1  0.36257249  0.60706670  0.13233276  1
  O  O5  1  0.23885306  0.23505840  0.63180250  1
  O  O6  1  0.13233788  0.62323027  0.73934732  1
  O  O7  1  0.86686108  0.39288692  0.23890851  1
  O  O8  1  0.73934921  0.76976988  0.36258110  1
  O  O9  1  0.63177205  0.37200064  0.86688438  1
