# generated using pymatgen
data_K3VO4
_symmetry_space_group_name_H-M   'P 1'
_cell_length_a   6.58916903
_cell_length_b   6.58916903
_cell_length_c   6.58916903
_cell_angle_alpha   75.07007129
_cell_angle_beta   128.96302754
_cell_angle_gamma   128.96302750
_symmetry_Int_Tables_number   1
_chemical_formula_structural   K3VO4
_chemical_formula_sum   'K3 V1 O4'
_cell_volume   168.41109249
_cell_formula_units_Z   1
loop_
 _symmetry_equiv_pos_site_id
 _symmetry_equiv_pos_as_xyz
  1  'x, y, z'
loop_
 _atom_site_type_symbol
 _atom_site_label
 _atom_site_symmetry_multiplicity
 _atom_site_fract_x
 _atom_site_fract_y
 _atom_site_fract_z
 _atom_site_occupancy
  O  O0  1  0.64113483  0.91654319  0.91654319  1
  O  O1  1  0.00000000  0.08345681  0.72459164  1
  O  O2  1  1.00000000  0.72459164  0.08345681  1
  O  O3  1  0.35886517  0.27540836  0.27540836  1
  K  K4  1  0.50000000  0.75000000  0.25000000  1
  K  K5  1  0.50000000  0.25000000  0.75000000  1
  K  K6  1  0.00000000  0.50000000  0.50000000  1
  V  V7  1  0.00000000  0.00000000  0.00000000  1
