# generated using pymatgen
data_LiMnSbO4
_symmetry_space_group_name_H-M   'P 1'
_cell_length_a   6.26241946
_cell_length_b   6.26256068
_cell_length_c   8.71868437
_cell_angle_alpha   90.00105210
_cell_angle_beta   89.99879385
_cell_angle_gamma   89.99574442
_symmetry_Int_Tables_number   1
_chemical_formula_structural   LiMnSbO4
_chemical_formula_sum   'Li4 Mn4 Sb4 O16'
_cell_volume   341.93617998
_cell_formula_units_Z   4
loop_
 _symmetry_equiv_pos_site_id
 _symmetry_equiv_pos_as_xyz
  1  'x, y, z'
loop_
 _atom_site_type_symbol
 _atom_site_label
 _atom_site_symmetry_multiplicity
 _atom_site_fract_x
 _atom_site_fract_y
 _atom_site_fract_z
 _atom_site_occupancy
  Li  Li0  1  0.99999000  0.21076439  0.99999512  1
  Li  Li1  1  0.00000552  0.78923254  0.50000255  1
  Li  Li2  1  0.21077522  0.99998793  0.25000418  1
  Li  Li3  1  0.78922462  0.00000412  0.74999801  1
  Mn  Mn4  1  0.24740818  0.24738308  0.62500054  1
  Mn  Mn5  1  0.24730612  0.75271598  0.87499846  1
  Mn  Mn6  1  0.75266819  0.24730347  0.37500688  1
  Mn  Mn7  1  0.75263463  0.75265737  0.12499654  1
  Sb  Sb8  1  0.23460642  0.49999839  0.24999557  1
  Sb  Sb9  1  0.50000082  0.23466985  0.00000454  1
  Sb  Sb10  1  0.49999088  0.76533044  0.50000230  1
  Sb  Sb11  1  0.76539728  0.49998871  0.74999766  1
  O  O12  1  0.03054047  0.26478557  0.25248079  1
  O  O13  1  0.03051254  0.73521210  0.24751095  1
  O  O14  1  0.26479949  0.03056065  0.99751636  1
  O  O15  1  0.26479834  0.96947766  0.50251049  1
  O  O16  1  0.27242155  0.47918087  0.01764741  1
  O  O17  1  0.27241653  0.52085135  0.48233865  1
  O  O18  1  0.47917233  0.27243579  0.23234552  1
  O  O19  1  0.47914822  0.72755834  0.26766117  1
  O  O20  1  0.52086733  0.27243332  0.76766865  1
  O  O21  1  0.52082201  0.72754599  0.73234163  1
  O  O22  1  0.72756389  0.52080954  0.51765126  1
  O  O23  1  0.72757373  0.47915720  0.98234286  1
  O  O24  1  0.73520181  0.03053106  0.00249185  1
  O  O25  1  0.73519403  0.96943545  0.49751737  1
  O  O26  1  0.96950418  0.26478302  0.74749351  1
  O  O27  1  0.96945567  0.73520584  0.75247917  1
