# generated using pymatgen
data_AlCl3
_symmetry_space_group_name_H-M   'P 1'
_cell_length_a   6.02417020
_cell_length_b   6.02417020
_cell_length_c   6.65323632
_cell_angle_alpha   98.46500857
_cell_angle_beta   98.46500861
_cell_angle_gamma   119.97023811
_symmetry_Int_Tables_number   1
_chemical_formula_structural   AlCl3
_chemical_formula_sum   'Al2 Cl6'
_cell_volume   199.90275267
_cell_formula_units_Z   2
loop_
 _symmetry_equiv_pos_site_id
 _symmetry_equiv_pos_as_xyz
  1  'x, y, z'
loop_
 _atom_site_type_symbol
 _atom_site_label
 _atom_site_symmetry_multiplicity
 _atom_site_fract_x
 _atom_site_fract_y
 _atom_site_fract_z
 _atom_site_occupancy
  Al  Al0  1  0.83338260  0.16661740  0.00000000  1
  Al  Al1  1  0.16661740  0.83338260  0.00000000  1
  Cl  Cl2  1  0.79547343  0.79547343  0.78873261  1
  Cl  Cl3  1  0.20452657  0.20452657  0.21126739  1
  Cl  Cl4  1  0.56832003  0.93150335  0.21036776  1
  Cl  Cl5  1  0.06849665  0.43167997  0.78963224  1
  Cl  Cl6  1  0.43167997  0.06849665  0.78963224  1
  Cl  Cl7  1  0.93150335  0.56832003  0.21036776  1
