# generated using pymatgen
data_Cu2S
_symmetry_space_group_name_H-M   'P 1'
_cell_length_a   3.99375853
_cell_length_b   3.99342200
_cell_length_c   11.23716739
_cell_angle_alpha   89.99960522
_cell_angle_beta   90.00195824
_cell_angle_gamma   89.99879357
_symmetry_Int_Tables_number   1
_chemical_formula_structural   Cu2S
_chemical_formula_sum   'Cu8 S4'
_cell_volume   179.21892140
_cell_formula_units_Z   4
loop_
 _symmetry_equiv_pos_site_id
 _symmetry_equiv_pos_as_xyz
  1  'x, y, z'
loop_
 _atom_site_type_symbol
 _atom_site_label
 _atom_site_symmetry_multiplicity
 _atom_site_fract_x
 _atom_site_fract_y
 _atom_site_fract_z
 _atom_site_occupancy
  Cu  Cu0  1  0.99964181  0.66020175  0.33452342  1
  Cu  Cu1  1  0.50034923  0.16021195  0.41547131  1
  Cu  Cu2  1  0.83977147  0.49961870  0.08451538  1
  Cu  Cu3  1  0.00035330  0.33979675  0.83453135  1
  Cu  Cu4  1  0.33975458  0.00042826  0.16549733  1
  Cu  Cu5  1  0.49963045  0.83977869  0.91548097  1
  Cu  Cu6  1  0.16026004  0.50039218  0.58449570  1
  Cu  Cu7  1  0.66024455  0.99959065  0.66549103  1
  S  S8  1  0.49712468  0.50285188  0.75000839  1
  S  S9  1  0.00286602  0.00285770  0.99999447  1
  S  S10  1  0.99712895  0.99713307  0.49998718  1
  S  S11  1  0.50287493  0.49713843  0.25000345  1
