# generated using pymatgen
data_BaP3Pt2
_symmetry_space_group_name_H-M   'P 1'
_cell_length_a   5.83907368
_cell_length_b   8.40954818
_cell_length_c   11.80306644
_cell_angle_alpha   106.76779566
_cell_angle_beta   90.00000000
_cell_angle_gamma   90.00000000
_symmetry_Int_Tables_number   1
_chemical_formula_structural   BaP3Pt2
_chemical_formula_sum   'Ba4 P12 Pt8'
_cell_volume   554.93484973
_cell_formula_units_Z   4
loop_
 _symmetry_equiv_pos_site_id
 _symmetry_equiv_pos_as_xyz
  1  'x, y, z'
loop_
 _atom_site_type_symbol
 _atom_site_label
 _atom_site_symmetry_multiplicity
 _atom_site_fract_x
 _atom_site_fract_y
 _atom_site_fract_z
 _atom_site_occupancy
  P  P0  1  0.38435456  0.72416074  0.41705129  1
  P  P1  1  0.88435456  0.27583926  0.08294871  1
  P  P2  1  0.61564544  0.27583926  0.58294871  1
  P  P3  1  0.11564544  0.72416074  0.91705129  1
  P  P4  1  0.87948135  0.93120807  0.43008814  1
  P  P5  1  0.37948135  0.06879193  0.06991186  1
  P  P6  1  0.12051865  0.06879193  0.56991186  1
  P  P7  1  0.84781151  0.54459176  0.82546543  1
  P  P8  1  0.65218849  0.54459176  0.32546543  1
  P  P9  1  0.15218849  0.45540824  0.17453457  1
  P  P10  1  0.34781151  0.45540824  0.67453457  1
  P  P11  1  0.62051865  0.93120807  0.93008814  1
  Ba  Ba12  1  0.08555847  0.24015790  0.35180070  1
  Ba  Ba13  1  0.91444153  0.75984210  0.64819930  1
  Ba  Ba14  1  0.58555847  0.75984210  0.14819930  1
  Ba  Ba15  1  0.41444153  0.24015790  0.85180070  1
  Pt  Pt16  1  0.50000000  0.00000000  0.50000000  1
  Pt  Pt17  1  0.00000000  0.50000000  0.00000000  1
  Pt  Pt18  1  0.50000000  0.50000000  0.50000000  1
  Pt  Pt19  1  0.00000000  0.00000000  0.00000000  1
  Pt  Pt20  1  0.48383113  0.66173337  0.83883478  1
  Pt  Pt21  1  0.98383113  0.33826663  0.66116522  1
  Pt  Pt22  1  0.51616887  0.33826663  0.16116522  1
  Pt  Pt23  1  0.01616887  0.66173337  0.33883478  1
