# generated using pymatgen
data_Li3(NiO2)4
_symmetry_space_group_name_H-M   'P 1'
_cell_length_a   5.58342971
_cell_length_b   5.67402318
_cell_length_c   5.71751293
_cell_angle_alpha   118.23183757
_cell_angle_beta   118.30903683
_cell_angle_gamma   91.46071471
_symmetry_Int_Tables_number   1
_chemical_formula_structural   Li3(NiO2)4
_chemical_formula_sum   'Li3 Ni4 O8'
_cell_volume   133.01367061
_cell_formula_units_Z   1
loop_
 _symmetry_equiv_pos_site_id
 _symmetry_equiv_pos_as_xyz
  1  'x, y, z'
loop_
 _atom_site_type_symbol
 _atom_site_label
 _atom_site_symmetry_multiplicity
 _atom_site_fract_x
 _atom_site_fract_y
 _atom_site_fract_z
 _atom_site_occupancy
  Li  Li0  1  0.00006126  0.50007917  0.00011280  1
  Li  Li1  1  0.50002319  0.00001444  0.00006334  1
  Li  Li2  1  0.50028307  0.00029760  0.50058238  1
  Ni  Ni3  1  0.50000967  0.50003955  0.00003433  1
  Ni  Ni4  1  0.49998811  0.50000840  0.50002345  1
  Ni  Ni5  1  0.00008135  0.00000371  0.00006892  1
  Ni  Ni6  1  0.00001985  0.49998044  0.50001166  1
  O  O7  1  0.76475081  0.28436450  0.04776773  1
  O  O8  1  0.75701241  0.72543910  0.50760596  1
  O  O9  1  0.28734431  0.28933232  0.05611736  1
  O  O10  1  0.25843810  0.72234616  0.49937813  1
  O  O11  1  0.74157307  0.27766189  0.50065429  1
  O  O12  1  0.71269662  0.71072664  0.94394073  1
  O  O13  1  0.24303747  0.27461929  0.49244369  1
  O  O14  1  0.23519870  0.71560979  0.95217023  1
