# generated using pymatgen
data_Li2CoSiO4
_symmetry_space_group_name_H-M   'P 1'
_cell_length_a   4.36746571
_cell_length_b   4.36570836
_cell_length_c   11.96632928
_cell_angle_alpha   24.18811457
_cell_angle_beta   79.43833560
_cell_angle_gamma   89.93574258
_symmetry_Int_Tables_number   1
_chemical_formula_structural   Li2CoSiO4
_chemical_formula_sum   'Li2 Co1 Si1 O4'
_cell_volume   83.72649100
_cell_formula_units_Z   1
loop_
 _symmetry_equiv_pos_site_id
 _symmetry_equiv_pos_as_xyz
  1  'x, y, z'
loop_
 _atom_site_type_symbol
 _atom_site_label
 _atom_site_symmetry_multiplicity
 _atom_site_fract_x
 _atom_site_fract_y
 _atom_site_fract_z
 _atom_site_occupancy
  Li  Li0  1  0.75098188  0.26103550  0.49609246  1
  Li  Li1  1  0.25035189  0.76177254  0.49576339  1
  Co  Co2  1  0.50024793  0.50972058  0.99573061  1
  Si  Si3  1  0.00010893  0.00827810  0.99670207  1
  O  O4  1  0.89447303  0.35005210  0.77335834  1
  O  O5  1  0.67305840  0.66884479  0.21920195  1
  O  O6  1  0.32786960  0.78530988  0.77247837  1
  O  O7  1  0.10600235  0.23808652  0.21844581  1
