# generated using pymatgen
data_LiMn(PO3)3
_symmetry_space_group_name_H-M   'P 1'
_cell_length_a   6.12838904
_cell_length_b   6.12838951
_cell_length_c   6.12838956
_cell_angle_alpha   109.11815515
_cell_angle_beta   109.11814738
_cell_angle_gamma   109.11814654
_symmetry_Int_Tables_number   1
_chemical_formula_structural   LiMn(PO3)3
_chemical_formula_sum   'Li1 Mn1 P3 O9'
_cell_volume   179.45976231
_cell_formula_units_Z   1
loop_
 _symmetry_equiv_pos_site_id
 _symmetry_equiv_pos_as_xyz
  1  'x, y, z'
loop_
 _atom_site_type_symbol
 _atom_site_label
 _atom_site_symmetry_multiplicity
 _atom_site_fract_x
 _atom_site_fract_y
 _atom_site_fract_z
 _atom_site_occupancy
  Li  Li0  1  0.98880783  0.98880783  0.98880783  1
  Mn  Mn1  1  0.48494893  0.48494893  0.48494893  1
  P  P2  1  0.01371624  0.91893041  0.48544129  1
  P  P3  1  0.91893041  0.48544129  0.01371624  1
  P  P4  1  0.48544129  0.01371624  0.91893041  1
  O  O5  1  0.22146866  0.84631749  0.64244814  1
  O  O6  1  0.14082050  0.44074546  0.15071569  1
  O  O7  1  0.60049278  0.83136631  0.91977127  1
  O  O8  1  0.83136631  0.91977127  0.60049278  1
  O  O9  1  0.15071569  0.14082050  0.44074546  1
  O  O10  1  0.84631749  0.64244814  0.22146866  1
  O  O11  1  0.44074546  0.15071569  0.14082050  1
  O  O12  1  0.91977127  0.60049278  0.83136631  1
  O  O13  1  0.64244814  0.22146866  0.84631749  1
