# generated using pymatgen
data_SiO2
_symmetry_space_group_name_H-M   'P 1'
_cell_length_a   5.06459772
_cell_length_b   5.08228974
_cell_length_c   7.03829278
_cell_angle_alpha   90.00000000
_cell_angle_beta   90.00000000
_cell_angle_gamma   90.00000000
_symmetry_Int_Tables_number   1
_chemical_formula_structural   SiO2
_chemical_formula_sum   'Si4 O8'
_cell_volume   181.16391791
_cell_formula_units_Z   4
loop_
 _symmetry_equiv_pos_site_id
 _symmetry_equiv_pos_as_xyz
  1  'x, y, z'
loop_
 _atom_site_type_symbol
 _atom_site_label
 _atom_site_symmetry_multiplicity
 _atom_site_fract_x
 _atom_site_fract_y
 _atom_site_fract_z
 _atom_site_occupancy
  Si  Si0  1  0.99957143  0.04552346  0.62482906  1
  Si  Si1  1  0.49957143  0.45447654  0.12482906  1
  Si  Si2  1  0.49957143  0.95447654  0.37517094  1
  Si  Si3  1  0.99957143  0.54552346  0.87517094  1
  O  O4  1  0.44725787  0.65575066  0.30101037  1
  O  O5  1  0.94725787  0.34424934  0.69898963  1
  O  O6  1  0.44725787  0.15575066  0.19898963  1
  O  O7  1  0.30318070  0.51595878  0.94768560  1
  O  O8  1  0.80318070  0.98404122  0.44768560  1
  O  O9  1  0.94725787  0.84424934  0.80101037  1
  O  O10  1  0.30318070  0.01595878  0.55231440  1
  O  O11  1  0.80318070  0.48404122  0.05231440  1
