# generated using pymatgen
data_SBr2O
_symmetry_space_group_name_H-M   'P 1'
_cell_length_a   4.51625374
_cell_length_b   12.28549082
_cell_length_c   19.38082339
_cell_angle_alpha   90.00000000
_cell_angle_beta   90.00000000
_cell_angle_gamma   90.00000000
_symmetry_Int_Tables_number   1
_chemical_formula_structural   SBr2O
_chemical_formula_sum   'S8 Br16 O8'
_cell_volume   1075.33323837
_cell_formula_units_Z   8
loop_
 _symmetry_equiv_pos_site_id
 _symmetry_equiv_pos_as_xyz
  1  'x, y, z'
loop_
 _atom_site_type_symbol
 _atom_site_label
 _atom_site_symmetry_multiplicity
 _atom_site_fract_x
 _atom_site_fract_y
 _atom_site_fract_z
 _atom_site_occupancy
  O  O0  1  0.86716534  0.33805742  0.33557948  1
  O  O1  1  0.13283466  0.66194258  0.83557948  1
  O  O2  1  0.13283466  0.83805742  0.33557948  1
  O  O3  1  0.86716534  0.16194258  0.83557948  1
  O  O4  1  0.35738782  0.09388127  0.96257388  1
  O  O5  1  0.35738782  0.40611873  0.46257388  1
  O  O6  1  0.64261218  0.59388127  0.96257388  1
  O  O7  1  0.64261218  0.90611873  0.46257388  1
  S  S8  1  0.63609337  0.23699229  0.81359952  1
  S  S9  1  0.12818767  0.48255237  0.48375907  1
  S  S10  1  0.12818767  0.01744763  0.98375907  1
  S  S11  1  0.87181233  0.98255237  0.48375907  1
  S  S12  1  0.36390663  0.76300771  0.31359952  1
  S  S13  1  0.36390663  0.73699229  0.81359952  1
  S  S14  1  0.63609337  0.26300771  0.31359952  1
  S  S15  1  0.87181233  0.51744763  0.98375907  1
  Br  Br16  1  0.85361074  0.40496317  0.79486826  1
  Br  Br17  1  0.14638926  0.59503683  0.29486826  1
  Br  Br18  1  0.14638926  0.90496317  0.79486826  1
  Br  Br19  1  0.85361074  0.09503683  0.29486826  1
  Br  Br20  1  0.51258567  0.19497725  0.70248755  1
  Br  Br21  1  0.48741433  0.80502275  0.20248755  1
  Br  Br22  1  0.48741433  0.69497725  0.70248755  1
  Br  Br23  1  0.51258567  0.30502275  0.20248755  1
  Br  Br24  1  0.00081843  0.94296270  0.59505109  1
  Br  Br25  1  0.99918157  0.05703730  0.09505109  1
  Br  Br26  1  0.99918157  0.44296270  0.59505109  1
  Br  Br27  1  0.00081843  0.55703730  0.09505109  1
  Br  Br28  1  0.64920725  0.14985780  0.50128114  1
  Br  Br29  1  0.35079275  0.85014220  1.00128114  1
  Br  Br30  1  0.35079275  0.64985780  0.50128114  1
  Br  Br31  1  0.64920725  0.35014220  1.00128114  1
