# generated using pymatgen
data_Rh2S3
_symmetry_space_group_name_H-M   'P 1'
_cell_length_a   6.05461252
_cell_length_b   6.20018762
_cell_length_c   8.56173983
_cell_angle_alpha   90.00000000
_cell_angle_beta   90.00000000
_cell_angle_gamma   90.00000000
_symmetry_Int_Tables_number   1
_chemical_formula_structural   Rh2S3
_chemical_formula_sum   'Rh8 S12'
_cell_volume   321.40543229
_cell_formula_units_Z   4
loop_
 _symmetry_equiv_pos_site_id
 _symmetry_equiv_pos_as_xyz
  1  'x, y, z'
loop_
 _atom_site_type_symbol
 _atom_site_label
 _atom_site_symmetry_multiplicity
 _atom_site_fract_x
 _atom_site_fract_y
 _atom_site_fract_z
 _atom_site_occupancy
  S  S0  1  0.45351193  0.25000000  0.50000000  1
  S  S1  1  0.04648807  0.75000000  0.00000000  1
  S  S2  1  0.54648807  0.75000000  0.50000000  1
  S  S3  1  0.95351193  0.25000000  0.00000000  1
  S  S4  1  0.89038049  0.39329005  0.34885969  1
  S  S5  1  0.89038049  0.10670995  0.65114031  1
  S  S6  1  0.60961951  0.89329005  0.15114031  1
  S  S7  1  0.60961951  0.60670995  0.84885969  1
  S  S8  1  0.39038049  0.39329005  0.15114031  1
  S  S9  1  0.39038049  0.10670995  0.84885969  1
  S  S10  1  0.10961951  0.89329005  0.34885969  1
  S  S11  1  0.10961951  0.60670995  0.65114031  1
  Rh  Rh12  1  0.75148260  0.03212004  0.39287219  1
  Rh  Rh13  1  0.75148260  0.46787996  0.60712781  1
  Rh  Rh14  1  0.74851740  0.53212004  0.10712781  1
  Rh  Rh15  1  0.74851740  0.96787996  0.89287219  1
  Rh  Rh16  1  0.24851740  0.96787996  0.60712781  1
  Rh  Rh17  1  0.24851740  0.53212004  0.39287219  1
  Rh  Rh18  1  0.25148260  0.46787996  0.89287219  1
  Rh  Rh19  1  0.25148260  0.03212004  0.10712781  1
