# generated using pymatgen
data_Na2(GaSb)3
_symmetry_space_group_name_H-M   'P 1'
_cell_length_a   4.35379167
_cell_length_b   7.35779260
_cell_length_c   27.26659080
_cell_angle_alpha   90.00000000
_cell_angle_beta   90.00000000
_cell_angle_gamma   90.00000000
_symmetry_Int_Tables_number   1
_chemical_formula_structural   Na2(GaSb)3
_chemical_formula_sum   'Na8 Ga12 Sb12'
_cell_volume   873.46604418
_cell_formula_units_Z   4
loop_
 _symmetry_equiv_pos_site_id
 _symmetry_equiv_pos_as_xyz
  1  'x, y, z'
loop_
 _atom_site_type_symbol
 _atom_site_label
 _atom_site_symmetry_multiplicity
 _atom_site_fract_x
 _atom_site_fract_y
 _atom_site_fract_z
 _atom_site_occupancy
  Na  Na0  1  0.25000000  0.22113296  0.49609833  1
  Na  Na1  1  0.75000000  0.77886704  0.50390167  1
  Na  Na2  1  0.75000000  0.72113296  0.00390167  1
  Na  Na3  1  0.25000000  0.27886704  0.99609833  1
  Na  Na4  1  0.25000000  0.24947109  0.81643395  1
  Na  Na5  1  0.75000000  0.75052891  0.18356605  1
  Na  Na6  1  0.75000000  0.74947109  0.68356605  1
  Na  Na7  1  0.25000000  0.25052891  0.31643395  1
  Ga  Ga8  1  0.25000000  0.54753903  0.61843035  1
  Ga  Ga9  1  0.75000000  0.45246097  0.38156965  1
  Ga  Ga10  1  0.75000000  0.04753903  0.88156965  1
  Ga  Ga11  1  0.25000000  0.95246097  0.11843035  1
  Ga  Ga12  1  0.25000000  0.07159047  0.20721052  1
  Ga  Ga13  1  0.75000000  0.92840953  0.79278948  1
  Ga  Ga14  1  0.75000000  0.57159047  0.29278948  1
  Ga  Ga15  1  0.25000000  0.42840953  0.70721052  1
  Ga  Ga16  1  0.75000000  0.39702400  0.12263447  1
  Ga  Ga17  1  0.25000000  0.60297600  0.87736553  1
  Ga  Ga18  1  0.25000000  0.89702400  0.37736553  1
  Ga  Ga19  1  0.75000000  0.10297600  0.62263447  1
  Sb  Sb20  1  0.75000000  0.20483603  0.71996059  1
  Sb  Sb21  1  0.25000000  0.79516397  0.28003941  1
  Sb  Sb22  1  0.25000000  0.70483603  0.78003941  1
  Sb  Sb23  1  0.75000000  0.29516397  0.21996059  1
  Sb  Sb24  1  0.25000000  0.90945600  0.59309996  1
  Sb  Sb25  1  0.75000000  0.09054400  0.40690004  1
  Sb  Sb26  1  0.75000000  0.40945600  0.90690004  1
  Sb  Sb27  1  0.25000000  0.59054400  0.09309996  1
  Sb  Sb28  1  0.75000000  0.41277184  0.57197978  1
  Sb  Sb29  1  0.25000000  0.58722816  0.42802022  1
  Sb  Sb30  1  0.25000000  0.91277184  0.92802022  1
  Sb  Sb31  1  0.75000000  0.08722816  0.07197978  1
