# generated using pymatgen
data_SrSeO3
_symmetry_space_group_name_H-M   'P 1'
_cell_length_a   4.49308003
_cell_length_b   5.59508632
_cell_length_c   6.74076418
_cell_angle_alpha   90.00000000
_cell_angle_beta   108.14677121
_cell_angle_gamma   90.00000000
_symmetry_Int_Tables_number   1
_chemical_formula_structural   SrSeO3
_chemical_formula_sum   'Sr2 Se2 O6'
_cell_volume   161.02872448
_cell_formula_units_Z   2
loop_
 _symmetry_equiv_pos_site_id
 _symmetry_equiv_pos_as_xyz
  1  'x, y, z'
loop_
 _atom_site_type_symbol
 _atom_site_label
 _atom_site_symmetry_multiplicity
 _atom_site_fract_x
 _atom_site_fract_y
 _atom_site_fract_z
 _atom_site_occupancy
  O  O0  1  0.82675647  0.98881618  0.67035064  1
  O  O1  1  0.17324353  0.48881618  0.32964936  1
  O  O2  1  0.17324353  0.01118382  0.32964936  1
  O  O3  1  0.82675647  0.51118382  0.67035064  1
  O  O4  1  0.33678543  0.75000000  0.89894921  1
  O  O5  1  0.66321457  0.25000000  0.10105079  1
  Se  Se6  1  0.06455043  0.25000000  0.15788562  1
  Se  Se7  1  0.93544957  0.75000000  0.84211438  1
  Sr  Sr8  1  0.34596284  0.25000000  0.69556657  1
  Sr  Sr9  1  0.65403716  0.75000000  0.30443343  1
