# generated using pymatgen
data_Cs2Li3F5
_symmetry_space_group_name_H-M   'P 1'
_cell_length_a   4.05038985
_cell_length_b   4.13460900
_cell_length_c   10.41359120
_cell_angle_alpha   101.45041706
_cell_angle_beta   90.00000000
_cell_angle_gamma   90.00000000
_symmetry_Int_Tables_number   1
_chemical_formula_structural   Cs2Li3F5
_chemical_formula_sum   'Cs2 Li3 F5'
_cell_volume   170.92311440
_cell_formula_units_Z   1
loop_
 _symmetry_equiv_pos_site_id
 _symmetry_equiv_pos_as_xyz
  1  'x, y, z'
loop_
 _atom_site_type_symbol
 _atom_site_label
 _atom_site_symmetry_multiplicity
 _atom_site_fract_x
 _atom_site_fract_y
 _atom_site_fract_z
 _atom_site_occupancy
  Cs  Cs0  1  0.00000000  0.26828260  0.53656519  1
  Cs  Cs1  1  0.50000000  0.61845750  0.23691500  1
  Li  Li2  1  0.00000000  0.42311721  0.84623443  1
  Li  Li3  1  0.00000000  0.01389047  0.02778094  1
  Li  Li4  1  0.50000000  0.87729857  0.75459715  1
  F  F5  1  0.00000000  0.91481244  0.82962487  1
  F  F6  1  0.00000000  0.10988711  0.21977421  1
  F  F7  1  0.50000000  0.77995454  0.55990909  1
  F  F8  1  0.50000000  0.39060724  0.78121448  1
  F  F9  1  0.00000000  0.51296232  0.02592464  1
