# generated using pymatgen
data_LiTaO3
_symmetry_space_group_name_H-M   'P 1'
_cell_length_a   5.53381920
_cell_length_b   5.53381920
_cell_length_c   5.53381920
_cell_angle_alpha   56.14486292
_cell_angle_beta   56.14486288
_cell_angle_gamma   56.14486290
_symmetry_Int_Tables_number   1
_chemical_formula_structural   LiTaO3
_chemical_formula_sum   'Li2 Ta2 O6'
_cell_volume   109.13334374
_cell_formula_units_Z   2
loop_
 _symmetry_equiv_pos_site_id
 _symmetry_equiv_pos_as_xyz
  1  'x, y, z'
loop_
 _atom_site_type_symbol
 _atom_site_label
 _atom_site_symmetry_multiplicity
 _atom_site_fract_x
 _atom_site_fract_y
 _atom_site_fract_z
 _atom_site_occupancy
  Li  Li0  1  0.28225650  0.28225650  0.28225650  1
  Li  Li1  1  0.78225650  0.78225650  0.78225650  1
  O  O2  1  0.61985792  0.22598551  0.86065284  1
  O  O3  1  0.72598551  0.11985792  0.36065284  1
  O  O4  1  0.11985792  0.36065284  0.72598551  1
  O  O5  1  0.36065284  0.72598551  0.11985792  1
  O  O6  1  0.86065284  0.61985792  0.22598551  1
  O  O7  1  0.22598551  0.86065284  0.61985792  1
  Ta  Ta8  1  0.99944723  0.99944723  0.99944723  1
  Ta  Ta9  1  0.49944723  0.49944723  0.49944723  1
