# generated using pymatgen
data_GaPO4
_symmetry_space_group_name_H-M   'P 1'
_cell_length_a   5.00549643
_cell_length_b   5.00549678
_cell_length_c   7.00209805
_cell_angle_alpha   90.00000000
_cell_angle_beta   90.00000000
_cell_angle_gamma   90.09094200
_symmetry_Int_Tables_number   1
_chemical_formula_structural   GaPO4
_chemical_formula_sum   'Ga2 P2 O8'
_cell_volume   175.43731938
_cell_formula_units_Z   2
loop_
 _symmetry_equiv_pos_site_id
 _symmetry_equiv_pos_as_xyz
  1  'x, y, z'
loop_
 _atom_site_type_symbol
 _atom_site_label
 _atom_site_symmetry_multiplicity
 _atom_site_fract_x
 _atom_site_fract_y
 _atom_site_fract_z
 _atom_site_occupancy
  Ga  Ga0  1  0.81286939  0.81286939  0.75000000  1
  Ga  Ga1  1  0.18713061  0.18713061  0.25000000  1
  P  P2  1  0.31638686  0.68361314  0.00000000  1
  P  P3  1  0.68361314  0.31638686  0.50000000  1
  O  O4  1  0.83363282  0.22607728  0.31816310  1
  O  O5  1  0.16636718  0.77392272  0.81816310  1
  O  O6  1  0.77392272  0.16636718  0.68183690  1
  O  O7  1  0.73277529  0.61779877  0.53488362  1
  O  O8  1  0.22607728  0.83363282  0.18183690  1
  O  O9  1  0.61779877  0.73277529  0.96511638  1
  O  O10  1  0.38220123  0.26722471  0.46511638  1
  O  O11  1  0.26722471  0.38220123  0.03488362  1
