# generated using pymatgen
data_Y3CuSnS7
_symmetry_space_group_name_H-M   'P 1'
_cell_length_a   9.76877974
_cell_length_b   9.76877974
_cell_length_c   6.28132017
_cell_angle_alpha   90.00000000
_cell_angle_beta   90.00000000
_cell_angle_gamma   120.00000002
_symmetry_Int_Tables_number   1
_chemical_formula_structural   Y3CuSnS7
_chemical_formula_sum   'Y6 Cu2 Sn2 S14'
_cell_volume   519.11334976
_cell_formula_units_Z   2
loop_
 _symmetry_equiv_pos_site_id
 _symmetry_equiv_pos_as_xyz
  1  'x, y, z'
loop_
 _atom_site_type_symbol
 _atom_site_label
 _atom_site_symmetry_multiplicity
 _atom_site_fract_x
 _atom_site_fract_y
 _atom_site_fract_z
 _atom_site_occupancy
  S  S0  1  0.66666667  0.33333333  0.19186295  1
  S  S1  1  0.33333333  0.66666667  0.69186295  1
  S  S2  1  0.48006361  0.56234905  0.12666515  1
  S  S3  1  0.91771456  0.48006361  0.62666515  1
  S  S4  1  0.56234905  0.08228544  0.62666515  1
  S  S5  1  0.43765095  0.91771456  0.12666515  1
  S  S6  1  0.08228544  0.51993639  0.12666515  1
  S  S7  1  0.51993639  0.43765095  0.62666515  1
  S  S8  1  0.73808434  0.88430822  0.45605702  1
  S  S9  1  0.85377612  0.73808434  0.95605702  1
  S  S10  1  0.26191566  0.11569178  0.95605702  1
  S  S11  1  0.14622388  0.26191566  0.45605702  1
  S  S12  1  0.11569178  0.85377612  0.45605702  1
  S  S13  1  0.88430822  0.14622388  0.95605702  1
  Cu  Cu14  1  0.00000000  0.00000000  0.98983811  1
  Cu  Cu15  1  0.00000000  0.00000000  0.48983811  1
  Y  Y16  1  0.20862549  0.35970854  0.87384818  1
  Y  Y17  1  0.35970854  0.15108305  0.37384818  1
  Y  Y18  1  0.64029146  0.84891695  0.87384818  1
  Y  Y19  1  0.79137451  0.64029146  0.37384818  1
  Y  Y20  1  0.84891695  0.20862549  0.37384818  1
  Y  Y21  1  0.15108305  0.79137451  0.87384818  1
  Sn  Sn22  1  0.33333333  0.66666667  0.30878788  1
  Sn  Sn23  1  0.66666667  0.33333333  0.80878788  1
