# generated using pymatgen
data_CdPS3
_symmetry_space_group_name_H-M   'P 1'
_cell_length_a   8.19684592
_cell_length_b   8.19684592
_cell_length_c   8.19684591
_cell_angle_alpha   45.19073530
_cell_angle_beta   45.19073531
_cell_angle_gamma   45.19073528
_symmetry_Int_Tables_number   1
_chemical_formula_structural   CdPS3
_chemical_formula_sum   'Cd2 P2 S6'
_cell_volume   252.40331623
_cell_formula_units_Z   2
loop_
 _symmetry_equiv_pos_site_id
 _symmetry_equiv_pos_as_xyz
  1  'x, y, z'
loop_
 _atom_site_type_symbol
 _atom_site_label
 _atom_site_symmetry_multiplicity
 _atom_site_fract_x
 _atom_site_fract_y
 _atom_site_fract_z
 _atom_site_occupancy
  P  P0  1  0.94888825  0.94888825  0.94888825  1
  P  P1  1  0.05129833  0.05129833  0.05129833  1
  S  S2  1  0.92137413  0.23425636  0.61247814  1
  S  S3  1  0.61247814  0.92137413  0.23425636  1
  S  S4  1  0.76594767  0.38769382  0.07887652  1
  S  S5  1  0.07887652  0.76594767  0.38769382  1
  S  S6  1  0.38769382  0.07887652  0.76594767  1
  S  S7  1  0.23425636  0.61247814  0.92137413  1
  Cd  Cd8  1  0.66738380  0.66738380  0.66738380  1
  Cd  Cd9  1  0.33284964  0.33284964  0.33284964  1
