# generated using pymatgen
data_Al(MoS2)4
_symmetry_space_group_name_H-M   'P 1'
_cell_length_a   6.90796026
_cell_length_b   6.90796026
_cell_length_c   6.90796060
_cell_angle_alpha   60.68754034
_cell_angle_beta   60.68754037
_cell_angle_gamma   60.68754369
_symmetry_Int_Tables_number   1
_chemical_formula_structural   Al(MoS2)4
_chemical_formula_sum   'Al1 Mo4 S8'
_cell_volume   236.71329959
_cell_formula_units_Z   1
loop_
 _symmetry_equiv_pos_site_id
 _symmetry_equiv_pos_as_xyz
  1  'x, y, z'
loop_
 _atom_site_type_symbol
 _atom_site_label
 _atom_site_symmetry_multiplicity
 _atom_site_fract_x
 _atom_site_fract_y
 _atom_site_fract_z
 _atom_site_occupancy
  Al  Al0  1  0.00242681  0.00242681  0.00242681  1
  Mo  Mo1  1  0.39929977  0.39929977  0.81318463  1
  Mo  Mo2  1  0.40485816  0.40485816  0.40485816  1
  Mo  Mo3  1  0.81318463  0.39929977  0.39929977  1
  Mo  Mo4  1  0.39929977  0.81318463  0.39929977  1
  S  S5  1  0.63516557  0.63516557  0.63516557  1
  S  S6  1  0.10110512  0.64021951  0.64021951  1
  S  S7  1  0.64021951  0.10110512  0.64021951  1
  S  S8  1  0.13998585  0.59987603  0.13998585  1
  S  S9  1  0.13837342  0.13837342  0.13837342  1
  S  S10  1  0.13998585  0.13998585  0.59987603  1
  S  S11  1  0.59987603  0.13998585  0.13998585  1
  S  S12  1  0.64021951  0.64021951  0.10110512  1
