# generated using pymatgen
data_KTa(AgSe2)2
_symmetry_space_group_name_H-M   'P 1'
_cell_length_a   6.16438968
_cell_length_b   8.37579919
_cell_length_c   10.42076519
_cell_angle_alpha   90.00000000
_cell_angle_beta   107.20397522
_cell_angle_gamma   90.00000000
_symmetry_Int_Tables_number   1
_chemical_formula_structural   KTa(AgSe2)2
_chemical_formula_sum   'K2 Ta2 Ag4 Se8'
_cell_volume   513.96857190
_cell_formula_units_Z   2
loop_
 _symmetry_equiv_pos_site_id
 _symmetry_equiv_pos_as_xyz
  1  'x, y, z'
loop_
 _atom_site_type_symbol
 _atom_site_label
 _atom_site_symmetry_multiplicity
 _atom_site_fract_x
 _atom_site_fract_y
 _atom_site_fract_z
 _atom_site_occupancy
  K  K0  1  0.82195888  0.75000000  0.36841801  1
  K  K1  1  0.45354088  0.25000000  0.63158199  1
  Ta  Ta2  1  0.29715413  0.75000000  0.77455276  1
  Ta  Ta3  1  0.52260137  0.25000000  0.22544724  1
  Ag  Ag4  1  0.37357120  0.00000000  1.00000000  1
  Ag  Ag5  1  0.37357120  0.50000000  1.00000000  1
  Ag  Ag6  1  0.79551599  0.75000000  0.77087824  1
  Ag  Ag7  1  0.02463775  0.25000000  0.22912176  1
  Se  Se8  1  0.63091248  0.75000000  0.98008828  1
  Se  Se9  1  0.65082420  0.25000000  0.01991172  1
  Se  Se10  1  0.06793319  0.99356149  0.76127533  1
  Se  Se11  1  0.30665786  0.49356149  0.23872467  1
  Se  Se12  1  0.83937187  0.25000000  0.42879394  1
  Se  Se13  1  0.30665786  0.00643851  0.23872467  1
  Se  Se14  1  0.06793319  0.50643851  0.76127533  1
  Se  Se15  1  0.41057793  0.75000000  0.57120606  1
