# generated using pymatgen
data_Ag5SbS4
_symmetry_space_group_name_H-M   'P 1'
_cell_length_a   7.37412331
_cell_length_b   7.37412332
_cell_length_c   9.12207898
_cell_angle_alpha   90.00000000
_cell_angle_beta   90.00000000
_cell_angle_gamma   116.27542731
_symmetry_Int_Tables_number   1
_chemical_formula_structural   Ag5SbS4
_chemical_formula_sum   'Ag10 Sb2 S8'
_cell_volume   444.78521732
_cell_formula_units_Z   2
loop_
 _symmetry_equiv_pos_site_id
 _symmetry_equiv_pos_as_xyz
  1  'x, y, z'
loop_
 _atom_site_type_symbol
 _atom_site_label
 _atom_site_symmetry_multiplicity
 _atom_site_fract_x
 _atom_site_fract_y
 _atom_site_fract_z
 _atom_site_occupancy
  S  S0  1  0.96558814  0.50422031  0.21782383  1
  S  S1  1  0.03441186  0.49577969  0.71782383  1
  S  S2  1  0.48239596  0.51760404  0.30287844  1
  S  S3  1  0.51760404  0.48239596  0.80287844  1
  S  S4  1  0.98170532  0.01829468  0.48951161  1
  S  S5  1  0.01829468  0.98170532  0.98951161  1
  S  S6  1  0.49577969  0.03441186  0.21782383  1
  S  S7  1  0.50422031  0.96558814  0.71782383  1
  Ag  Ag8  1  0.13183327  0.26083609  0.17978765  1
  Ag  Ag9  1  0.57108622  0.80483476  0.49115707  1
  Ag  Ag10  1  0.80483476  0.57108622  0.99115707  1
  Ag  Ag11  1  0.19516524  0.42891378  0.49115707  1
  Ag  Ag12  1  0.73916391  0.86816673  0.17978765  1
  Ag  Ag13  1  0.26083609  0.13183327  0.67978765  1
  Ag  Ag14  1  0.13727696  0.86272304  0.32203384  1
  Ag  Ag15  1  0.86272304  0.13727696  0.82203384  1
  Ag  Ag16  1  0.42891378  0.19516524  0.99115707  1
  Ag  Ag17  1  0.86816673  0.73916391  0.67978765  1
  Sb  Sb18  1  0.67501289  0.32498711  0.38253900  1
  Sb  Sb19  1  0.32498711  0.67501289  0.88253900  1
