# generated using pymatgen
data_SiO2
_symmetry_space_group_name_H-M   'P 1'
_cell_length_a   5.18748199
_cell_length_b   5.22749669
_cell_length_c   8.46789910
_cell_angle_alpha   90.00000000
_cell_angle_beta   90.00000000
_cell_angle_gamma   119.21271640
_symmetry_Int_Tables_number   1
_chemical_formula_structural   SiO2
_chemical_formula_sum   'Si4 O8'
_cell_volume   200.42303594
_cell_formula_units_Z   4
loop_
 _symmetry_equiv_pos_site_id
 _symmetry_equiv_pos_as_xyz
  1  'x, y, z'
loop_
 _atom_site_type_symbol
 _atom_site_label
 _atom_site_symmetry_multiplicity
 _atom_site_fract_x
 _atom_site_fract_y
 _atom_site_fract_z
 _atom_site_occupancy
  Si  Si0  1  0.37764456  0.64756413  0.93881962  1
  Si  Si1  1  0.62235544  0.35243587  0.43881962  1
  Si  Si2  1  0.71089615  0.31432703  0.06354402  1
  Si  Si3  1  0.28910385  0.68567297  0.56354402  1
  O  O4  1  0.06120015  0.47086780  0.02663006  1
  O  O5  1  0.93879985  0.52913220  0.52663006  1
  O  O6  1  0.55920119  0.97370270  0.01223676  1
  O  O7  1  0.43636743  0.52368873  0.46515044  1
  O  O8  1  0.66645184  0.33397220  0.25111910  1
  O  O9  1  0.44079881  0.02629730  0.51223676  1
  O  O10  1  0.56363257  0.47631127  0.96515044  1
  O  O11  1  0.33354816  0.66602780  0.75111910  1
