# generated using pymatgen
data_N2
_symmetry_space_group_name_H-M   'P 1'
_cell_length_a   5.87246231
_cell_length_b   5.87246231
_cell_length_c   5.87246231
_cell_angle_alpha   90.00000000
_cell_angle_beta   90.00000000
_cell_angle_gamma   90.00000000
_symmetry_Int_Tables_number   1
_chemical_formula_structural   N2
_chemical_formula_sum   N8
_cell_volume   202.51664049
_cell_formula_units_Z   4
loop_
 _symmetry_equiv_pos_site_id
 _symmetry_equiv_pos_as_xyz
  1  'x, y, z'
loop_
 _atom_site_type_symbol
 _atom_site_label
 _atom_site_symmetry_multiplicity
 _atom_site_fract_x
 _atom_site_fract_y
 _atom_site_fract_z
 _atom_site_occupancy
  N  N0  1  0.06395261  0.06395261  0.06395261  1
  N  N1  1  0.43604739  0.93604739  0.56395261  1
  N  N2  1  0.56395261  0.43604739  0.93604739  1
  N  N3  1  0.93604739  0.56395261  0.43604739  1
  N  N4  1  0.95452318  0.95452318  0.95452318  1
  N  N5  1  0.54547682  0.04547682  0.45452318  1
  N  N6  1  0.45452318  0.54547682  0.04547682  1
  N  N7  1  0.04547682  0.45452318  0.54547682  1
