# generated using pymatgen
data_AlHO2
_symmetry_space_group_name_H-M   'P 1'
_cell_length_a   2.86154568
_cell_length_b   4.26347775
_cell_length_c   4.76997397
_cell_angle_alpha   90.00000000
_cell_angle_beta   90.00000000
_cell_angle_gamma   90.00000000
_symmetry_Int_Tables_number   1
_chemical_formula_structural   AlHO2
_chemical_formula_sum   'Al2 H2 O4'
_cell_volume   58.19433276
_cell_formula_units_Z   2
loop_
 _symmetry_equiv_pos_site_id
 _symmetry_equiv_pos_as_xyz
  1  'x, y, z'
loop_
 _atom_site_type_symbol
 _atom_site_label
 _atom_site_symmetry_multiplicity
 _atom_site_fract_x
 _atom_site_fract_y
 _atom_site_fract_z
 _atom_site_occupancy
  H  H0  1  0.50000000  0.19450551  0.97696024  1
  H  H1  1  0.00000000  0.80549449  0.47696024  1
  O  O2  1  0.00000000  0.50252112  0.64877796  1
  O  O3  1  0.50000000  0.49747888  0.14877796  1
  O  O4  1  0.00000000  0.00093620  0.34855284  1
  O  O5  1  0.50000000  0.99906380  0.84855284  1
  Al  Al6  1  0.50000000  0.27633747  0.49111895  1
  Al  Al7  1  0.00000000  0.72366253  0.99111895  1
