# generated using pymatgen
data_AgNO2
_symmetry_space_group_name_H-M   'P 1'
_cell_length_a   3.90835552
_cell_length_b   4.51349885
_cell_length_c   4.51349884
_cell_angle_alpha   68.91367902
_cell_angle_beta   64.34425625
_cell_angle_gamma   64.34425626
_symmetry_Int_Tables_number   1
_chemical_formula_structural   AgNO2
_chemical_formula_sum   'Ag1 N1 O2'
_cell_volume   63.22293697
_cell_formula_units_Z   1
loop_
 _symmetry_equiv_pos_site_id
 _symmetry_equiv_pos_as_xyz
  1  'x, y, z'
loop_
 _atom_site_type_symbol
 _atom_site_label
 _atom_site_symmetry_multiplicity
 _atom_site_fract_x
 _atom_site_fract_y
 _atom_site_fract_z
 _atom_site_occupancy
  N  N0  1  0.00000000  0.39288236  0.60711764  1
  O  O1  1  0.83114249  0.69410698  0.64360804  1
  O  O2  1  0.16885751  0.35639196  0.30589302  1
  Ag  Ag3  1  0.00000000  0.95661870  0.04338130  1
