# generated using pymatgen
data_ZrSeO
_symmetry_space_group_name_H-M   'P 1'
_cell_length_a   5.88738203
_cell_length_b   5.88738203
_cell_length_c   5.88738203
_cell_angle_alpha   90.00000000
_cell_angle_beta   90.00000000
_cell_angle_gamma   90.00000000
_symmetry_Int_Tables_number   1
_chemical_formula_structural   ZrSeO
_chemical_formula_sum   'Zr4 Se4 O4'
_cell_volume   204.06412146
_cell_formula_units_Z   4
loop_
 _symmetry_equiv_pos_site_id
 _symmetry_equiv_pos_as_xyz
  1  'x, y, z'
loop_
 _atom_site_type_symbol
 _atom_site_label
 _atom_site_symmetry_multiplicity
 _atom_site_fract_x
 _atom_site_fract_y
 _atom_site_fract_z
 _atom_site_occupancy
  Zr  Zr0  1  0.07799876  0.07799876  0.07799876  1
  Zr  Zr1  1  0.42200124  0.92200124  0.57799876  1
  Zr  Zr2  1  0.57799876  0.42200124  0.92200124  1
  Zr  Zr3  1  0.92200124  0.57799876  0.42200124  1
  Se  Se4  1  0.15900037  0.65900037  0.84099963  1
  Se  Se5  1  0.34099963  0.34099963  0.34099963  1
  Se  Se6  1  0.65900037  0.84099963  0.15900037  1
  Se  Se7  1  0.84099963  0.15900037  0.65900037  1
  O  O8  1  0.15118675  0.84881325  0.34881325  1
  O  O9  1  0.34881325  0.15118675  0.84881325  1
  O  O10  1  0.65118675  0.65118675  0.65118675  1
  O  O11  1  0.84881325  0.34881325  0.15118675  1
