# generated using pymatgen
data_TmBiO3
_symmetry_space_group_name_H-M   'P 1'
_cell_length_a   5.96712776
_cell_length_b   6.10516551
_cell_length_c   5.96712774
_cell_angle_alpha   119.25484086
_cell_angle_beta   59.99999991
_cell_angle_gamma   119.25484399
_symmetry_Int_Tables_number   1
_chemical_formula_structural   TmBiO3
_chemical_formula_sum   'Tm2 Bi2 O6'
_cell_volume   155.42248838
_cell_formula_units_Z   2
loop_
 _symmetry_equiv_pos_site_id
 _symmetry_equiv_pos_as_xyz
  1  'x, y, z'
loop_
 _atom_site_type_symbol
 _atom_site_label
 _atom_site_symmetry_multiplicity
 _atom_site_fract_x
 _atom_site_fract_y
 _atom_site_fract_z
 _atom_site_occupancy
  Tm  Tm0  1  0.22201176  0.66603529  0.22201176  1
  Tm  Tm1  1  0.72201176  0.16603529  0.72201176  1
  Bi  Bi2  1  0.00787449  0.02362347  0.00787449  1
  Bi  Bi3  1  0.50787449  0.52362347  0.50787449  1
  O  O4  1  0.07517864  0.34852375  0.41505382  1
  O  O5  1  0.57517864  0.84852375  0.35829129  1
  O  O6  1  0.35829129  0.84852375  0.91505382  1
  O  O7  1  0.41505382  0.34852375  0.85829129  1
  O  O8  1  0.85829129  0.34852375  0.07517864  1
  O  O9  1  0.91505382  0.84852375  0.57517864  1
