# generated using pymatgen
data_RbSO2F
_symmetry_space_group_name_H-M   'P 1'
_cell_length_a   4.88563299
_cell_length_b   6.03002545
_cell_length_c   7.40027136
_cell_angle_alpha   90.00000000
_cell_angle_beta   107.79201247
_cell_angle_gamma   90.00000000
_symmetry_Int_Tables_number   1
_chemical_formula_structural   RbSO2F
_chemical_formula_sum   'Rb2 S2 O4 F2'
_cell_volume   207.58837819
_cell_formula_units_Z   2
loop_
 _symmetry_equiv_pos_site_id
 _symmetry_equiv_pos_as_xyz
  1  'x, y, z'
loop_
 _atom_site_type_symbol
 _atom_site_label
 _atom_site_symmetry_multiplicity
 _atom_site_fract_x
 _atom_site_fract_y
 _atom_site_fract_z
 _atom_site_occupancy
  O  O0  1  0.33477504  0.45300272  0.69825997  1
  O  O1  1  0.66522496  0.95300272  0.30174003  1
  O  O2  1  0.66522496  0.54699728  0.30174003  1
  O  O3  1  0.33477504  0.04699728  0.69825997  1
  F  F4  1  0.20801061  0.75000000  0.12330312  1
  F  F5  1  0.79198939  0.25000000  0.87669688  1
  S  S6  1  0.39900285  0.25000000  0.81609668  1
  S  S7  1  0.60099715  0.75000000  0.18390332  1
  Rb  Rb8  1  0.15684398  0.25000000  0.28476955  1
  Rb  Rb9  1  0.84315602  0.75000000  0.71523045  1
