# generated using pymatgen
data_Ni3TeO6
_symmetry_space_group_name_H-M   'P 1'
_cell_length_a   5.16823269
_cell_length_b   5.16823270
_cell_length_c   5.51717181
_cell_angle_alpha   62.07100496
_cell_angle_beta   62.07100501
_cell_angle_gamma   60.00000046
_symmetry_Int_Tables_number   1
_chemical_formula_structural   Ni3TeO6
_chemical_formula_sum   'Ni3 Te1 O6'
_cell_volume   107.34792678
_cell_formula_units_Z   1
loop_
 _symmetry_equiv_pos_site_id
 _symmetry_equiv_pos_as_xyz
  1  'x, y, z'
loop_
 _atom_site_type_symbol
 _atom_site_label
 _atom_site_symmetry_multiplicity
 _atom_site_fract_x
 _atom_site_fract_y
 _atom_site_fract_z
 _atom_site_occupancy
  Ni  Ni0  1  0.99854281  0.99854281  0.00437157  1
  Ni  Ni1  1  0.79440687  0.79440687  0.61677938  1
  Ni  Ni2  1  0.50647027  0.50647027  0.48058919  1
  Te  Te3  1  0.30532112  0.30532112  0.08403664  1
  O  O4  1  0.20435717  0.92578015  0.29426208  1
  O  O5  1  0.92578015  0.57560060  0.29426208  1
  O  O6  1  0.57560060  0.20435717  0.29426208  1
  O  O7  1  0.69009371  0.10172420  0.80977899  1
  O  O8  1  0.10172420  0.39840310  0.80977899  1
  O  O9  1  0.39840310  0.69009371  0.80977899  1
