# generated using pymatgen
data_Cs2SnF6
_symmetry_space_group_name_H-M   'P 1'
_cell_length_a   5.17475518
_cell_length_b   6.43986665
_cell_length_c   6.43992216
_cell_angle_alpha   120.00046699
_cell_angle_beta   90.00004997
_cell_angle_gamma   89.99972646
_symmetry_Int_Tables_number   1
_chemical_formula_structural   Cs2SnF6
_chemical_formula_sum   'Cs2 Sn1 F6'
_cell_volume   185.85570157
_cell_formula_units_Z   1
loop_
 _symmetry_equiv_pos_site_id
 _symmetry_equiv_pos_as_xyz
  1  'x, y, z'
loop_
 _atom_site_type_symbol
 _atom_site_label
 _atom_site_symmetry_multiplicity
 _atom_site_fract_x
 _atom_site_fract_y
 _atom_site_fract_z
 _atom_site_occupancy
  Cs  Cs0  1  0.30567041  0.33337121  0.66668480  1
  Cs  Cs1  1  0.69432959  0.66662879  0.33331520  1
  Sn  Sn2  1  0.00000000  0.00000000  -0.00000000  1
  F  F3  1  0.78500126  0.69908498  0.84954318  1
  F  F4  1  0.78500592  0.15045496  0.84955300  1
  F  F5  1  0.78500456  0.15045512  0.30090317  1
  F  F6  1  0.21499874  0.30091502  0.15045682  1
  F  F7  1  0.21499408  0.84954504  0.15044700  1
  F  F8  1  0.21499544  0.84954488  0.69909683  1
