# generated using pymatgen
data_CaMgAsO4F
_symmetry_space_group_name_H-M   'P 1'
_cell_length_a   5.66172093
_cell_length_b   5.66172067
_cell_length_c   7.20674312
_cell_angle_alpha   103.86068257
_cell_angle_beta   103.86068193
_cell_angle_gamma   106.19156152
_symmetry_Int_Tables_number   1
_chemical_formula_structural   CaMgAsO4F
_chemical_formula_sum   'Ca2 Mg2 As2 O8 F2'
_cell_volume   203.42988004
_cell_formula_units_Z   2
loop_
 _symmetry_equiv_pos_site_id
 _symmetry_equiv_pos_as_xyz
  1  'x, y, z'
loop_
 _atom_site_type_symbol
 _atom_site_label
 _atom_site_symmetry_multiplicity
 _atom_site_fract_x
 _atom_site_fract_y
 _atom_site_fract_z
 _atom_site_occupancy
  Ca  Ca0  1  0.83539189  0.67024300  0.75756832  1
  Ca  Ca1  1  0.17024300  0.33539189  0.25756832  1
  Mg  Mg2  1  0.50297873  0.00465140  0.99952826  1
  Mg  Mg3  1  0.50465140  0.00297873  0.49952826  1
  As  As4  1  0.82383650  0.68188654  0.25062080  1
  As  As5  1  0.18188654  0.32383650  0.75062080  1
  O  O6  1  0.24378551  0.62205268  0.92188536  1
  O  O7  1  0.60291985  0.67455038  0.37973017  1
  O  O8  1  0.83084175  0.90279780  0.12081221  1
  O  O9  1  0.76464796  0.38592964  0.07719938  1
  O  O10  1  0.17455038  0.10291985  0.87973017  1
  O  O11  1  0.40279780  0.33084175  0.62081221  1
  O  O12  1  0.12205268  0.74378551  0.42188536  1
  O  O13  1  0.88592964  0.26464796  0.57719938  1
  F  F14  1  0.42292040  0.08756596  0.25045551  1
  F  F15  1  0.58756596  0.92292040  0.75045551  1
