# generated using pymatgen
data_LiTa2CuO6
_symmetry_space_group_name_H-M   'P 1'
_cell_length_a   5.57871416
_cell_length_b   5.57888203
_cell_length_c   5.57878988
_cell_angle_alpha   56.09836183
_cell_angle_beta   56.09076665
_cell_angle_gamma   56.09326512
_symmetry_Int_Tables_number   1
_chemical_formula_structural   LiTa2CuO6
_chemical_formula_sum   'Li1 Ta2 Cu1 O6'
_cell_volume   111.66919960
_cell_formula_units_Z   1
loop_
 _symmetry_equiv_pos_site_id
 _symmetry_equiv_pos_as_xyz
  1  'x, y, z'
loop_
 _atom_site_type_symbol
 _atom_site_label
 _atom_site_symmetry_multiplicity
 _atom_site_fract_x
 _atom_site_fract_y
 _atom_site_fract_z
 _atom_site_occupancy
  Li  Li0  1  0.24996702  0.24996610  0.24984271  1
  Ta  Ta1  1  0.99845966  0.99854247  0.99850613  1
  Ta  Ta2  1  0.50159321  0.50154567  0.50161042  1
  Cu  Cu3  1  0.75007376  0.75004500  0.74994804  1
  O  O4  1  0.13722549  0.75020480  0.36285695  1
  O  O5  1  0.36304806  0.13711664  0.74999983  1
  O  O6  1  0.75013178  0.36315066  0.13693576  1
  O  O7  1  0.25003936  0.63064729  0.86949816  1
  O  O8  1  0.63070390  0.86953826  0.25020876  1
  O  O9  1  0.86955875  0.25004312  0.63059325  1
