# generated using pymatgen
data_MnSnO3
_symmetry_space_group_name_H-M   'P 1'
_cell_length_a   5.71070395
_cell_length_b   5.71070405
_cell_length_c   5.71070391
_cell_angle_alpha   57.19098227
_cell_angle_beta   57.19098160
_cell_angle_gamma   57.19097888
_symmetry_Int_Tables_number   1
_chemical_formula_structural   MnSnO3
_chemical_formula_sum   'Mn2 Sn2 O6'
_cell_volume   123.16895051
_cell_formula_units_Z   2
loop_
 _symmetry_equiv_pos_site_id
 _symmetry_equiv_pos_as_xyz
  1  'x, y, z'
loop_
 _atom_site_type_symbol
 _atom_site_label
 _atom_site_symmetry_multiplicity
 _atom_site_fract_x
 _atom_site_fract_y
 _atom_site_fract_z
 _atom_site_occupancy
  Mn  Mn0  1  0.36498718  0.36498718  0.36498718  1
  Mn  Mn1  1  0.86498718  0.86498718  0.86498718  1
  Sn  Sn2  1  0.14768201  0.14768201  0.14768201  1
  Sn  Sn3  1  0.64768201  0.64768201  0.64768201  1
  O  O4  1  0.03079530  0.77144084  0.43509468  1
  O  O5  1  0.43509468  0.03079530  0.77144084  1
  O  O6  1  0.77144084  0.43509468  0.03079530  1
  O  O7  1  0.27144084  0.53079530  0.93509468  1
  O  O8  1  0.53079530  0.93509468  0.27144084  1
  O  O9  1  0.93509468  0.27144084  0.53079530  1
