# generated using pymatgen
data_GaPO4
_symmetry_space_group_name_H-M   'P 1'
_cell_length_a   5.00913586
_cell_length_b   5.00913586
_cell_length_c   11.24742987
_cell_angle_alpha   90.00000000
_cell_angle_beta   90.00000000
_cell_angle_gamma   119.99999998
_symmetry_Int_Tables_number   1
_chemical_formula_structural   GaPO4
_chemical_formula_sum   'Ga3 P3 O12'
_cell_volume   244.40469702
_cell_formula_units_Z   3
loop_
 _symmetry_equiv_pos_site_id
 _symmetry_equiv_pos_as_xyz
  1  'x, y, z'
loop_
 _atom_site_type_symbol
 _atom_site_label
 _atom_site_symmetry_multiplicity
 _atom_site_fract_x
 _atom_site_fract_y
 _atom_site_fract_z
 _atom_site_occupancy
  O  O0  1  0.26657566  0.41246761  0.12573566  1
  O  O1  1  0.58753239  0.85410806  0.45906899  1
  O  O2  1  0.14589194  0.73342434  0.79240232  1
  O  O3  1  0.85410806  0.58753239  0.54093101  1
  O  O4  1  0.73342434  0.14589194  0.20759768  1
  O  O5  1  0.41246761  0.26657566  0.87426434  1
  O  O6  1  0.40804033  0.31059848  0.39420267  1
  O  O7  1  0.68940152  0.09744185  0.72753601  1
  O  O8  1  0.90255815  0.59195967  0.06086934  1
  O  O9  1  0.09744185  0.68940152  0.27246399  1
  O  O10  1  0.59195967  0.90255815  0.93913066  1
  O  O11  1  0.31059848  0.40804033  0.60579733  1
  P  P12  1  0.53768564  0.53768564  0.50000000  1
  P  P13  1  0.00000000  0.46231436  0.16666667  1
  P  P14  1  0.46231436  0.00000000  0.83333333  1
  Ga  Ga15  1  0.53926295  0.53926295  0.00000000  1
  Ga  Ga16  1  0.00000000  0.46073705  0.66666667  1
  Ga  Ga17  1  0.46073705  0.00000000  0.33333333  1
