# generated using pymatgen
data_KNiIO6
_symmetry_space_group_name_H-M   'P 1'
_cell_length_a   5.02203946
_cell_length_b   5.02203908
_cell_length_c   6.12746329
_cell_angle_alpha   90.00000000
_cell_angle_beta   90.00000000
_cell_angle_gamma   120.00000247
_symmetry_Int_Tables_number   1
_chemical_formula_structural   KNiIO6
_chemical_formula_sum   'K1 Ni1 I1 O6'
_cell_volume   133.83556842
_cell_formula_units_Z   1
loop_
 _symmetry_equiv_pos_site_id
 _symmetry_equiv_pos_as_xyz
  1  'x, y, z'
loop_
 _atom_site_type_symbol
 _atom_site_label
 _atom_site_symmetry_multiplicity
 _atom_site_fract_x
 _atom_site_fract_y
 _atom_site_fract_z
 _atom_site_occupancy
  O  O0  1  0.37661040  0.99755124  0.67472868  1
  O  O1  1  0.00244876  0.37905917  0.67472868  1
  O  O2  1  0.62094083  0.62338960  0.67472868  1
  K  K3  1  0.00000000  0.00000000  0.00009488  1
  O  O4  1  0.00241708  0.62336778  0.32524179  1
  O  O5  1  0.62095070  0.99758292  0.32524179  1
  O  O6  1  0.37663222  0.37904930  0.32524179  1
  Ni  Ni7  1  0.33333300  0.66666700  0.49999506  1
  I  I8  1  0.66666700  0.33333300  0.49999865  1
