# generated using pymatgen
data_HgPS3
_symmetry_space_group_name_H-M   'P 1'
_cell_length_a   6.37766520
_cell_length_b   6.39130901
_cell_length_c   7.78219542
_cell_angle_alpha   95.10298424
_cell_angle_beta   106.33658830
_cell_angle_gamma   118.94557360
_symmetry_Int_Tables_number   1
_chemical_formula_structural   HgPS3
_chemical_formula_sum   'Hg2 P2 S6'
_cell_volume   256.63416702
_cell_formula_units_Z   2
loop_
 _symmetry_equiv_pos_site_id
 _symmetry_equiv_pos_as_xyz
  1  'x, y, z'
loop_
 _atom_site_type_symbol
 _atom_site_label
 _atom_site_symmetry_multiplicity
 _atom_site_fract_x
 _atom_site_fract_y
 _atom_site_fract_z
 _atom_site_occupancy
  P  P0  1  0.53994406  0.55792549  0.65589897  1
  P  P1  1  0.46005594  0.44207451  0.34410103  1
  S  S2  1  0.50662770  0.14749953  0.30212835  1
  S  S3  1  0.49337230  0.85250047  0.69787165  1
  S  S4  1  0.09461071  0.34854943  0.20429287  1
  S  S5  1  0.90538929  0.65145057  0.79570713  1
  S  S6  1  0.28498075  0.25867693  0.72139598  1
  S  S7  1  0.71501925  0.74132307  0.27860402  1
  Hg  Hg8  1  0.12659775  0.74741706  0.35363183  1
  Hg  Hg9  1  0.87340225  0.25258294  0.64636817  1
