# generated using pymatgen
data_ICl3
_symmetry_space_group_name_H-M   'P 1'
_cell_length_a   6.01729071
_cell_length_b   6.23876647
_cell_length_c   8.83965531
_cell_angle_alpha   71.26674403
_cell_angle_beta   84.61224256
_cell_angle_gamma   85.56688249
_symmetry_Int_Tables_number   1
_chemical_formula_structural   ICl3
_chemical_formula_sum   'I2 Cl6'
_cell_volume   312.48531825
_cell_formula_units_Z   2
loop_
 _symmetry_equiv_pos_site_id
 _symmetry_equiv_pos_as_xyz
  1  'x, y, z'
loop_
 _atom_site_type_symbol
 _atom_site_label
 _atom_site_symmetry_multiplicity
 _atom_site_fract_x
 _atom_site_fract_y
 _atom_site_fract_z
 _atom_site_occupancy
  Cl  Cl0  1  0.44253491  0.25796504  0.20431181  1
  Cl  Cl1  1  0.55746509  0.74203496  0.79568819  1
  Cl  Cl2  1  0.87865265  0.73616004  0.12497908  1
  Cl  Cl3  1  0.12134735  0.26383996  0.87502092  1
  Cl  Cl4  1  0.20898438  0.74345275  0.44965007  1
  Cl  Cl5  1  0.79101562  0.25654725  0.55034993  1
  I  I6  1  0.82041647  1.00057216  0.81643633  1
  I  I7  1  0.17958353  -0.00057216  0.18356367  1
