# generated using pymatgen
data_MgVO3
_symmetry_space_group_name_H-M   'P 1'
_cell_length_a   5.33525027
_cell_length_b   5.30569368
_cell_length_c   5.78678062
_cell_angle_alpha   90.00000000
_cell_angle_beta   117.45075384
_cell_angle_gamma   90.00000000
_symmetry_Int_Tables_number   1
_chemical_formula_structural   MgVO3
_chemical_formula_sum   'Mg2 V2 O6'
_cell_volume   145.36405351
_cell_formula_units_Z   2
loop_
 _symmetry_equiv_pos_site_id
 _symmetry_equiv_pos_as_xyz
  1  'x, y, z'
loop_
 _atom_site_type_symbol
 _atom_site_label
 _atom_site_symmetry_multiplicity
 _atom_site_fract_x
 _atom_site_fract_y
 _atom_site_fract_z
 _atom_site_occupancy
  O  O0  1  0.23469096  0.51433058  0.46938192  1
  O  O1  1  0.76530904  0.01433058  0.53061808  1
  O  O2  1  0.23860686  0.76239595  0.99947762  1
  O  O3  1  0.76139314  0.26239595  0.00052238  1
  O  O4  1  0.23912924  0.26239595  0.00052238  1
  O  O5  1  0.76087076  0.76239595  0.99947762  1
  Mg  Mg6  1  0.57483543  0.01212412  0.14967086  1
  Mg  Mg7  1  0.42516457  0.51212412  0.85032914  1
  V  V8  1  0.92971447  0.01275340  0.85942893  1
  V  V9  1  0.07028553  0.51275340  0.14057107  1
