# generated using pymatgen
data_Li2HN
_symmetry_space_group_name_H-M   'P 1'
_cell_length_a   3.67729976
_cell_length_b   3.60310091
_cell_length_c   3.60310096
_cell_angle_alpha   60.00000447
_cell_angle_beta   60.66526556
_cell_angle_gamma   60.66526512
_symmetry_Int_Tables_number   1
_chemical_formula_structural   Li2HN
_chemical_formula_sum   'Li2 H1 N1'
_cell_volume   34.09271059
_cell_formula_units_Z   1
loop_
 _symmetry_equiv_pos_site_id
 _symmetry_equiv_pos_as_xyz
  1  'x, y, z'
loop_
 _atom_site_type_symbol
 _atom_site_label
 _atom_site_symmetry_multiplicity
 _atom_site_fract_x
 _atom_site_fract_y
 _atom_site_fract_z
 _atom_site_occupancy
  H  H0  1  0.73444761  0.08851746  0.08851746  1
  Li  Li1  1  0.15336975  0.28221008  0.28221008  1
  Li  Li2  1  0.75826084  0.74724639  0.74724639  1
  N  N3  1  0.07492180  0.97502607  0.97502607  1
