# generated using pymatgen
data_Li2Mn3CoO8
_symmetry_space_group_name_H-M   'P 1'
_cell_length_a   5.87809504
_cell_length_b   5.87809540
_cell_length_c   5.87809520
_cell_angle_alpha   59.81307120
_cell_angle_beta   59.81306955
_cell_angle_gamma   59.81307735
_symmetry_Int_Tables_number   1
_chemical_formula_structural   Li2Mn3CoO8
_chemical_formula_sum   'Li2 Mn3 Co1 O8'
_cell_volume   143.00400189
_cell_formula_units_Z   1
loop_
 _symmetry_equiv_pos_site_id
 _symmetry_equiv_pos_as_xyz
  1  'x, y, z'
loop_
 _atom_site_type_symbol
 _atom_site_label
 _atom_site_symmetry_multiplicity
 _atom_site_fract_x
 _atom_site_fract_y
 _atom_site_fract_z
 _atom_site_occupancy
  Li  Li0  1  0.11676377  0.11676377  0.11676377  1
  Li  Li1  1  0.49919850  0.49919850  0.49919850  1
  Mn  Mn2  1  0.00574182  0.49889046  0.49889046  1
  Mn  Mn3  1  0.49889046  0.00574182  0.49889046  1
  Mn  Mn4  1  0.49889046  0.49889046  0.00574182  1
  Co  Co5  1  0.88325738  0.88325738  0.88325738  1
  O  O6  1  0.26214285  0.26214285  0.26214285  1
  O  O7  1  0.25174544  0.25174544  0.70956810  1
  O  O8  1  0.25174544  0.70956810  0.25174544  1
  O  O9  1  0.70956810  0.25174544  0.25174544  1
  O  O10  1  0.28901269  0.74616832  0.74616832  1
  O  O11  1  0.74616832  0.28901269  0.74616832  1
  O  O12  1  0.74616832  0.74616832  0.28901269  1
  O  O13  1  0.74070848  0.74070848  0.74070848  1
