# generated using pymatgen
data_NaNbO3
_symmetry_space_group_name_H-M   'P 1'
_cell_length_a   4.01795037
_cell_length_b   5.57351553
_cell_length_c   5.57351553
_cell_angle_alpha   90.00000000
_cell_angle_beta   90.00000000
_cell_angle_gamma   90.00000000
_symmetry_Int_Tables_number   1
_chemical_formula_structural   NaNbO3
_chemical_formula_sum   'Na2 Nb2 O6'
_cell_volume   124.81391310
_cell_formula_units_Z   2
loop_
 _symmetry_equiv_pos_site_id
 _symmetry_equiv_pos_as_xyz
  1  'x, y, z'
loop_
 _atom_site_type_symbol
 _atom_site_label
 _atom_site_symmetry_multiplicity
 _atom_site_fract_x
 _atom_site_fract_y
 _atom_site_fract_z
 _atom_site_occupancy
  O  O0  1  0.00000000  0.69890140  0.80109860  1
  O  O1  1  0.00000000  0.19890140  0.69890140  1
  O  O2  1  0.00000000  0.80109860  0.30109860  1
  O  O3  1  0.00000000  0.30109860  0.19890140  1
  O  O4  1  0.50000000  0.00000000  0.00000000  1
  O  O5  1  0.50000000  0.50000000  0.50000000  1
  Na  Na6  1  0.50000000  0.50000000  0.00000000  1
  Na  Na7  1  0.50000000  0.00000000  0.50000000  1
  Nb  Nb8  1  0.00000000  0.50000000  0.50000000  1
  Nb  Nb9  1  0.00000000  0.00000000  0.00000000  1
