# generated using pymatgen
data_NaNb(CuS2)2
_symmetry_space_group_name_H-M   'P 1'
_cell_length_a   5.59511635
_cell_length_b   7.67298560
_cell_length_c   9.67046761
_cell_angle_alpha   90.00000000
_cell_angle_beta   106.81538403
_cell_angle_gamma   90.00000000
_symmetry_Int_Tables_number   1
_chemical_formula_structural   NaNb(CuS2)2
_chemical_formula_sum   'Na2 Nb2 Cu4 S8'
_cell_volume   397.41354063
_cell_formula_units_Z   2
loop_
 _symmetry_equiv_pos_site_id
 _symmetry_equiv_pos_as_xyz
  1  'x, y, z'
loop_
 _atom_site_type_symbol
 _atom_site_label
 _atom_site_symmetry_multiplicity
 _atom_site_fract_x
 _atom_site_fract_y
 _atom_site_fract_z
 _atom_site_occupancy
  Na  Na0  1  0.66314193  0.75000000  0.66055042  1
  Na  Na1  1  0.00259152  0.25000000  0.33944958  1
  Nb  Nb2  1  0.88723450  0.75000000  0.21996395  1
  Nb  Nb3  1  0.66727055  0.25000000  0.78003605  1
  Cu  Cu4  1  0.76126419  -0.00000000  1.00000000  1
  Cu  Cu5  1  0.76126419  0.50000000  1.00000000  1
  Cu  Cu6  1  0.37903463  0.75000000  0.20814580  1
  Cu  Cu7  1  0.17088883  0.25000000  0.79185420  1
  S  S8  1  0.23946546  0.75000000  0.41220430  1
  S  S9  1  0.82726116  0.25000000  0.58779570  1
  S  S10  1  0.63293512  0.99259174  0.20809308  1
  S  S11  1  0.42484204  0.00740826  0.79190692  1
  S  S12  1  0.00450869  0.25000000  0.99179269  1
  S  S13  1  0.01271700  0.75000000  0.00820731  1
  S  S14  1  0.42484204  0.49259174  0.79190692  1
  S  S15  1  0.63293512  0.50740826  0.20809308  1
