# generated using pymatgen
data_Mg3(AsO4)2
_symmetry_space_group_name_H-M   'P 1'
_cell_length_a   6.89309843
_cell_length_b   10.71884934
_cell_length_c   6.89309843
_cell_angle_alpha   71.24385818
_cell_angle_beta   90.00000000
_cell_angle_gamma   108.75614182
_symmetry_Int_Tables_number   1
_chemical_formula_structural   Mg3(AsO4)2
_chemical_formula_sum   'Mg9 As6 O24'
_cell_volume   453.60175247
_cell_formula_units_Z   3
loop_
 _symmetry_equiv_pos_site_id
 _symmetry_equiv_pos_as_xyz
  1  'x, y, z'
loop_
 _atom_site_type_symbol
 _atom_site_label
 _atom_site_symmetry_multiplicity
 _atom_site_fract_x
 _atom_site_fract_y
 _atom_site_fract_z
 _atom_site_occupancy
  Mg  Mg0  1  0.37568992  0.24736005  0.12100259  1
  Mg  Mg1  1  0.25000000  0.50000000  0.25000000  1
  Mg  Mg2  1  0.77201763  0.54403526  0.22798237  1
  Mg  Mg3  1  0.63163736  0.75263995  0.37568992  1
  Mg  Mg4  1  0.87167013  0.24736005  0.63163736  1
  Mg  Mg5  1  0.52047802  0.04095604  0.97952198  1
  Mg  Mg6  1  0.22798237  0.45596474  0.77201763  1
  Mg  Mg7  1  0.97952198  0.95904396  0.52047802  1
  Mg  Mg8  1  0.12100259  0.75263995  0.87167013  1
  As  As9  1  0.00000000  0.00000000  0.00000000  1
  As  As10  1  0.87596596  0.24788132  0.22090923  1
  As  As11  1  0.37191536  0.24788132  0.53120946  1
  As  As12  1  0.22090923  0.75211868  0.37191536  1
  As  As13  1  0.75000000  0.50000000  0.75000000  1
  As  As14  1  0.53120946  0.75211868  0.87596596  1
  O  O15  1  0.25423290  0.08922223  0.00845456  1
  O  O16  1  0.65118899  0.20962327  0.11368749  1
  O  O17  1  0.11193293  0.30467095  0.07491140  1
  O  O18  1  0.62041765  0.69532905  0.11193293  1
  O  O19  1  0.26280398  0.11898145  0.42885692  1
  O  O20  1  0.47147367  0.39174759  0.29814702  1
  O  O21  1  0.92027292  0.39174759  0.31010539  1
  O  O22  1  0.85617847  0.11898145  0.45216163  1
  O  O23  1  0.07491140  0.69532905  0.19273803  1
  O  O24  1  0.90232321  0.91077777  0.25423290  1
  O  O25  1  0.45216163  0.88101855  0.26280398  1
  O  O26  1  0.19273803  0.30467095  0.62041765  1
  O  O27  1  0.55843428  0.20962327  0.67668925  1
  O  O28  1  0.31010539  0.60825241  0.47147367  1
  O  O29  1  0.73250797  0.58674480  0.49614498  1
  O  O30  1  0.83498933  0.08922223  0.90232321  1
  O  O31  1  0.91711022  0.41325520  0.73250797  1
  O  O32  1  0.11368749  0.79037673  0.55843428  1
  O  O33  1  0.67668925  0.79037673  0.65118899  1
  O  O34  1  0.49614498  0.41325520  0.85423683  1
  O  O35  1  0.85423683  0.58674480  0.91711022  1
  O  O36  1  0.29814702  0.60825241  0.92027292  1
  O  O37  1  0.42885692  0.88101855  0.85617847  1
  O  O38  1  0.00845456  0.91077777  0.83498933  1
