# generated using pymatgen
data_CoCO3
_symmetry_space_group_name_H-M   'P 1'
_cell_length_a   5.72340387
_cell_length_b   5.72340387
_cell_length_c   5.72340387
_cell_angle_alpha   48.64810687
_cell_angle_beta   48.64810688
_cell_angle_gamma   48.64810689
_symmetry_Int_Tables_number   1
_chemical_formula_structural   CoCO3
_chemical_formula_sum   'Co2 C2 O6'
_cell_volume   96.92635809
_cell_formula_units_Z   2
loop_
 _symmetry_equiv_pos_site_id
 _symmetry_equiv_pos_as_xyz
  1  'x, y, z'
loop_
 _atom_site_type_symbol
 _atom_site_label
 _atom_site_symmetry_multiplicity
 _atom_site_fract_x
 _atom_site_fract_y
 _atom_site_fract_z
 _atom_site_occupancy
  C  C0  1  0.74999893  0.75000055  0.75000014  1
  C  C1  1  0.24999852  0.25000103  0.25000022  1
  O  O2  1  0.74999914  0.47461678  0.02538447  1
  O  O3  1  0.47461663  0.02538277  0.74999966  1
  O  O4  1  0.97461623  0.25000107  0.52538288  1
  O  O5  1  0.02538356  0.75000052  0.47461592  1
  O  O6  1  0.25000064  0.52538481  0.97461434  1
  O  O7  1  0.52538418  0.97461627  0.25000016  1
  Co  Co8  1  0.50000040  0.49999952  0.49999991  1
  Co  Co9  1  0.00000000  0.00000000  0.00000000  1
