# generated using pymatgen
data_TlClO3
_symmetry_space_group_name_H-M   'P 1'
_cell_length_a   4.57492797
_cell_length_b   4.57492797
_cell_length_c   4.57492797
_cell_angle_alpha   83.89769474
_cell_angle_beta   83.89769468
_cell_angle_gamma   83.89769473
_symmetry_Int_Tables_number   1
_chemical_formula_structural   TlClO3
_chemical_formula_sum   'Tl1 Cl1 O3'
_cell_volume   94.23295318
_cell_formula_units_Z   1
loop_
 _symmetry_equiv_pos_site_id
 _symmetry_equiv_pos_as_xyz
  1  'x, y, z'
loop_
 _atom_site_type_symbol
 _atom_site_label
 _atom_site_symmetry_multiplicity
 _atom_site_fract_x
 _atom_site_fract_y
 _atom_site_fract_z
 _atom_site_occupancy
  O  O0  1  0.15895834  0.55577169  0.55577169  1
  O  O1  1  0.55577169  0.55577169  0.15895834  1
  O  O2  1  0.55577169  0.15895834  0.55577169  1
  Cl  Cl3  1  0.48884245  0.48884245  0.48884245  1
  Tl  Tl4  1  0.00065584  0.00065584  0.00065584  1
