# generated using pymatgen
data_GdAlPd
_symmetry_space_group_name_H-M   'P 1'
_cell_length_a   7.16565343
_cell_length_b   7.16565342
_cell_length_c   4.15326213
_cell_angle_alpha   90.00000000
_cell_angle_beta   90.00000000
_cell_angle_gamma   119.99999999
_symmetry_Int_Tables_number   1
_chemical_formula_structural   GdAlPd
_chemical_formula_sum   'Gd3 Al3 Pd3'
_cell_volume   184.68497819
_cell_formula_units_Z   3
loop_
 _symmetry_equiv_pos_site_id
 _symmetry_equiv_pos_as_xyz
  1  'x, y, z'
loop_
 _atom_site_type_symbol
 _atom_site_label
 _atom_site_symmetry_multiplicity
 _atom_site_fract_x
 _atom_site_fract_y
 _atom_site_fract_z
 _atom_site_occupancy
  Al  Al0  1  0.76520334  0.76520334  0.00000000  1
  Al  Al1  1  0.23479666  0.00000000  0.00000000  1
  Al  Al2  1  0.00000000  0.23479666  0.00000000  1
  Pd  Pd3  1  0.33333333  0.66666667  0.00000000  1
  Pd  Pd4  1  0.66666667  0.33333333  0.00000000  1
  Pd  Pd5  1  0.00000000  0.00000000  0.50000000  1
  Gd  Gd6  1  0.00000000  0.58246720  0.50000000  1
  Gd  Gd7  1  0.41753280  0.41753280  0.50000000  1
  Gd  Gd8  1  0.58246720  0.00000000  0.50000000  1
