# generated using pymatgen
data_TiCdO3
_symmetry_space_group_name_H-M   'P 1'
_cell_length_a   5.89364998
_cell_length_b   5.89364999
_cell_length_c   5.89364999
_cell_angle_alpha   53.51172306
_cell_angle_beta   53.51172307
_cell_angle_gamma   53.51172304
_symmetry_Int_Tables_number   1
_chemical_formula_structural   TiCdO3
_chemical_formula_sum   'Ti2 Cd2 O6'
_cell_volume   122.78027177
_cell_formula_units_Z   2
loop_
 _symmetry_equiv_pos_site_id
 _symmetry_equiv_pos_as_xyz
  1  'x, y, z'
loop_
 _atom_site_type_symbol
 _atom_site_label
 _atom_site_symmetry_multiplicity
 _atom_site_fract_x
 _atom_site_fract_y
 _atom_site_fract_z
 _atom_site_occupancy
  O  O0  1  0.80545351  0.43708776  0.03667572  1
  O  O1  1  0.43708776  0.03667572  0.80545351  1
  O  O2  1  0.03667572  0.80545351  0.43708776  1
  O  O3  1  0.19454649  0.56291224  0.96332428  1
  O  O4  1  0.96332428  0.19454649  0.56291224  1
  O  O5  1  0.56291224  0.96332428  0.19454649  1
  Ti  Ti6  1  0.85076082  0.85076082  0.85076082  1
  Ti  Ti7  1  0.14923918  0.14923918  0.14923918  1
  Cd  Cd8  1  0.63673181  0.63673181  0.63673181  1
  Cd  Cd9  1  0.36326819  0.36326819  0.36326819  1
