# generated using pymatgen
data_Sr2TaN3
_symmetry_space_group_name_H-M   'P 1'
_cell_length_a   6.07507017
_cell_length_b   6.43657136
_cell_length_c   12.67590950
_cell_angle_alpha   89.00683526
_cell_angle_beta   87.89510449
_cell_angle_gamma   61.84111761
_symmetry_Int_Tables_number   1
_chemical_formula_structural   Sr2TaN3
_chemical_formula_sum   'Sr8 Ta4 N12'
_cell_volume   436.70113739
_cell_formula_units_Z   4
loop_
 _symmetry_equiv_pos_site_id
 _symmetry_equiv_pos_as_xyz
  1  'x, y, z'
loop_
 _atom_site_type_symbol
 _atom_site_label
 _atom_site_symmetry_multiplicity
 _atom_site_fract_x
 _atom_site_fract_y
 _atom_site_fract_z
 _atom_site_occupancy
  N  N0  1  0.50162459  0.99675082  0.75000000  1
  N  N1  1  0.49837541  0.00324918  0.25000000  1
  N  N2  1  0.91857236  0.16285527  0.75000000  1
  N  N3  1  0.08142764  0.83714473  0.25000000  1
  N  N4  1  0.33217560  0.67450649  0.62398364  1
  N  N5  1  0.99331791  0.67450649  0.87601636  1
  N  N6  1  0.66782440  0.32549351  0.37601636  1
  N  N7  1  0.00668209  0.32549351  0.12398364  1
  N  N8  1  0.61585122  0.18784255  0.95854180  1
  N  N9  1  0.80369377  0.81215745  0.45854180  1
  N  N10  1  0.38414878  0.81215745  0.04145820  1
  N  N11  1  0.19630623  0.18784255  0.54145820  1
  Sr  Sr12  1  0.54645826  0.40143097  0.13935220  1
  Sr  Sr13  1  0.38714819  0.76803645  0.42315415  1
  Sr  Sr14  1  0.15518464  0.23196355  0.92315415  1
  Sr  Sr15  1  0.61285181  0.23196355  0.57684585  1
  Sr  Sr16  1  0.45354174  0.59856903  0.86064780  1
  Sr  Sr17  1  0.94788924  0.59856903  0.63935220  1
  Sr  Sr18  1  0.05211076  0.40143097  0.36064780  1
  Sr  Sr19  1  0.84481536  0.76803645  0.07684585  1
  Ta  Ta20  1  0.76331170  0.00426280  0.33629686  1
  Ta  Ta21  1  0.23242550  0.00426280  0.16370314  1
  Ta  Ta22  1  0.23668830  0.99573720  0.66370314  1
  Ta  Ta23  1  0.76757450  0.99573720  0.83629686  1
