# generated using pymatgen
data_Cd(BO2)2
_symmetry_space_group_name_H-M   'P 1'
_cell_length_a   8.97259437
_cell_length_b   8.97259437
_cell_length_c   7.27258200
_cell_angle_alpha   90.00000000
_cell_angle_beta   90.00000000
_cell_angle_gamma   119.99999996
_symmetry_Int_Tables_number   1
_chemical_formula_structural   Cd(BO2)2
_chemical_formula_sum   'Cd8 B16 O32'
_cell_volume   507.05530179
_cell_formula_units_Z   8
loop_
 _symmetry_equiv_pos_site_id
 _symmetry_equiv_pos_as_xyz
  1  'x, y, z'
loop_
 _atom_site_type_symbol
 _atom_site_label
 _atom_site_symmetry_multiplicity
 _atom_site_fract_x
 _atom_site_fract_y
 _atom_site_fract_z
 _atom_site_occupancy
  B  B0  1  0.84836292  0.17729778  0.34600013  1
  B  B1  1  0.67106514  0.84836292  0.84600013  1
  B  B2  1  0.17729778  0.32893486  0.84600013  1
  B  B3  1  0.82270222  0.67106514  0.34600013  1
  B  B4  1  0.32893486  0.15163708  0.34600013  1
  B  B5  1  0.15163708  0.82270222  0.84600013  1
  B  B6  1  0.67267996  0.84781650  0.23134286  1
  B  B7  1  0.82486346  0.67267996  0.73134286  1
  B  B8  1  0.66666667  0.33333333  0.75093156  1
  B  B9  1  0.33333333  0.66666667  0.25093156  1
  B  B10  1  0.66666667  0.33333333  0.36694739  1
  B  B11  1  0.33333333  0.66666667  0.86694739  1
  B  B12  1  0.32732004  0.15218350  0.73134286  1
  B  B13  1  0.17513654  0.32732004  0.23134286  1
  B  B14  1  0.15218350  0.82486346  0.23134286  1
  B  B15  1  0.84781650  0.17513654  0.73134286  1
  O  O16  1  0.00451622  0.70764869  0.72231989  1
  O  O17  1  0.70764869  0.70313247  0.22231989  1
  O  O18  1  0.30407286  0.80759820  0.79479522  1
  O  O19  1  0.49647466  0.30407286  0.29479522  1
  O  O20  1  0.80759820  0.50352534  0.29479522  1
  O  O21  1  0.19240180  0.49647466  0.79479522  1
  O  O22  1  0.50352534  0.69592714  0.79479522  1
  O  O23  1  0.69592714  0.19240180  0.29479522  1
  O  O24  1  0.66666667  0.33333333  0.55990664  1
  O  O25  1  0.33333333  0.66666667  0.05990664  1
  O  O26  1  0.32939197  0.09190626  0.53795564  1
  O  O27  1  0.23748571  0.32939197  0.03795564  1
  O  O28  1  0.09190626  0.76251429  0.03795564  1
  O  O29  1  0.90809374  0.23748571  0.53795564  1
  O  O30  1  0.76251429  0.67060803  0.53795564  1
  O  O31  1  0.67060803  0.90809374  0.03795564  1
  O  O32  1  0.18686046  0.00284316  0.82812373  1
  O  O33  1  0.18401730  0.18686046  0.32812373  1
  O  O34  1  0.00284316  0.81598270  0.32812373  1
  O  O35  1  0.99715684  0.18401730  0.82812373  1
  O  O36  1  0.81598270  0.81313954  0.82812373  1
  O  O37  1  0.81313954  0.99715684  0.32812373  1
  O  O38  1  0.49325555  0.20592277  0.82821216  1
  O  O39  1  0.28733277  0.49325555  0.32821216  1
  O  O40  1  0.20592277  0.71266723  0.32821216  1
  O  O41  1  0.79407723  0.28733277  0.82821216  1
  O  O42  1  0.71266723  0.50674445  0.82821216  1
  O  O43  1  0.50674445  0.79407723  0.32821216  1
  O  O44  1  0.29235131  0.29686753  0.72231989  1
  O  O45  1  0.99548378  0.29235131  0.22231989  1
  O  O46  1  0.29686753  0.00451622  0.22231989  1
  O  O47  1  0.70313247  0.99548378  0.72231989  1
  Cd  Cd48  1  0.00000000  0.00000000  0.06249994  1
  Cd  Cd49  1  0.00000000  0.00000000  0.56249994  1
  Cd  Cd50  1  0.52123285  0.04570421  0.04315287  1
  Cd  Cd51  1  0.47552864  0.52123285  0.54315287  1
  Cd  Cd52  1  0.04570421  0.52447136  0.54315287  1
  Cd  Cd53  1  0.95429579  0.47552864  0.04315287  1
  Cd  Cd54  1  0.52447136  0.47876715  0.04315287  1
  Cd  Cd55  1  0.47876715  0.95429579  0.54315287  1
