# generated using pymatgen
data_MgH4(ClO)2
_symmetry_space_group_name_H-M   'P 1'
_cell_length_a   3.70305407
_cell_length_b   5.84716508
_cell_length_c   5.84716508
_cell_angle_alpha   92.98257774
_cell_angle_beta   100.29935327
_cell_angle_gamma   100.29935332
_symmetry_Int_Tables_number   1
_chemical_formula_structural   MgH4(ClO)2
_chemical_formula_sum   'Mg1 H4 Cl2 O2'
_cell_volume   122.09561728
_cell_formula_units_Z   1
loop_
 _symmetry_equiv_pos_site_id
 _symmetry_equiv_pos_as_xyz
  1  'x, y, z'
loop_
 _atom_site_type_symbol
 _atom_site_label
 _atom_site_symmetry_multiplicity
 _atom_site_fract_x
 _atom_site_fract_y
 _atom_site_fract_z
 _atom_site_occupancy
  H  H0  1  0.85112547  0.22005896  0.59903641  1
  H  H1  1  0.14887453  0.40096359  0.77994104  1
  H  H2  1  0.14887453  0.77994104  0.40096359  1
  H  H3  1  0.85112547  0.59903641  0.22005896  1
  O  O4  1  1.00000000  0.24109722  0.75890278  1
  O  O5  1  0.00000000  0.75890278  0.24109722  1
  Mg  Mg6  1  0.00000000  0.00000000  0.00000000  1
  Cl  Cl7  1  0.38250611  0.77323885  0.77323885  1
  Cl  Cl8  1  0.61749389  0.22676115  0.22676115  1
