# generated using pymatgen
data_LiVF6
_symmetry_space_group_name_H-M   'P 1'
_cell_length_a   5.47106152
_cell_length_b   5.47106097
_cell_length_c   5.47106076
_cell_angle_alpha   60.00000032
_cell_angle_beta   90.00000000
_cell_angle_gamma   59.99999669
_symmetry_Int_Tables_number   1
_chemical_formula_structural   LiVF6
_chemical_formula_sum   'Li1 V1 F6'
_cell_volume   115.79763081
_cell_formula_units_Z   1
loop_
 _symmetry_equiv_pos_site_id
 _symmetry_equiv_pos_as_xyz
  1  'x, y, z'
loop_
 _atom_site_type_symbol
 _atom_site_label
 _atom_site_symmetry_multiplicity
 _atom_site_fract_x
 _atom_site_fract_y
 _atom_site_fract_z
 _atom_site_occupancy
  Li  Li0  1  0.00000000  0.00000000  0.00000000  1
  V  V1  1  0.50000000  0.00000000  0.50000000  1
  F  F2  1  0.73439225  0.53121649  0.73439225  1
  F  F3  1  0.73439225  0.00000000  0.73439225  1
  F  F4  1  0.73439225  1.00000000  0.26560775  1
  F  F5  1  0.26560775  0.46878351  0.26560775  1
  F  F6  1  0.26560775  0.00000000  0.73439225  1
  F  F7  1  0.26560775  1.00000000  0.26560775  1
