# generated using pymatgen
data_NdCrS2O
_symmetry_space_group_name_H-M   'P 1'
_cell_length_a   3.73079366
_cell_length_b   6.11108718
_cell_length_c   7.98173411
_cell_angle_alpha   89.91731929
_cell_angle_beta   90.00091268
_cell_angle_gamma   107.77405655
_symmetry_Int_Tables_number   1
_chemical_formula_structural   NdCrS2O
_chemical_formula_sum   'Nd2 Cr2 S4 O2'
_cell_volume   173.29080939
_cell_formula_units_Z   2
loop_
 _symmetry_equiv_pos_site_id
 _symmetry_equiv_pos_as_xyz
  1  'x, y, z'
loop_
 _atom_site_type_symbol
 _atom_site_label
 _atom_site_symmetry_multiplicity
 _atom_site_fract_x
 _atom_site_fract_y
 _atom_site_fract_z
 _atom_site_occupancy
  Nd  Nd0  1  0.73429241  0.46846876  0.20611793  1
  Nd  Nd1  1  0.26565775  0.53153763  0.79391308  1
  Cr  Cr2  1  0.99984289  0.99981025  0.99999503  1
  Cr  Cr3  1  0.50026200  0.00015555  0.49992410  1
  S  S4  1  0.86285212  0.72567765  0.52896091  1
  S  S5  1  0.54485044  0.08971192  0.80179982  1
  S  S6  1  0.45511408  0.91031424  0.19821550  1
  S  S7  1  0.13725194  0.27446188  0.47107114  1
  O  O8  1  0.16655990  0.33323370  0.06102724  1
  O  O9  1  0.83331748  0.66662843  0.93897427  1
