# generated using pymatgen
data_GeBi2O5
_symmetry_space_group_name_H-M   'P 1'
_cell_length_a   5.48159945
_cell_length_b   5.60987659
_cell_length_c   8.40834053
_cell_angle_alpha   109.48681913
_cell_angle_beta   90.00000000
_cell_angle_gamma   90.00000000
_symmetry_Int_Tables_number   1
_chemical_formula_structural   GeBi2O5
_chemical_formula_sum   'Ge2 Bi4 O10'
_cell_volume   243.75459717
_cell_formula_units_Z   2
loop_
 _symmetry_equiv_pos_site_id
 _symmetry_equiv_pos_as_xyz
  1  'x, y, z'
loop_
 _atom_site_type_symbol
 _atom_site_label
 _atom_site_symmetry_multiplicity
 _atom_site_fract_x
 _atom_site_fract_y
 _atom_site_fract_z
 _atom_site_occupancy
  O  O0  1  0.47005105  0.26323510  0.50129856  1
  O  O1  1  0.97005105  0.73676490  0.49870144  1
  O  O2  1  0.97005105  0.23806345  0.50129856  1
  O  O3  1  0.47005105  0.76193655  0.49870144  1
  O  O4  1  0.64023411  0.73575427  0.80844131  1
  O  O5  1  0.14023411  0.26424573  0.19155869  1
  O  O6  1  0.50705859  0.41404321  0.00000000  1
  O  O7  1  0.00705859  0.58595679  0.00000000  1
  O  O8  1  0.64023411  0.92731296  0.19155869  1
  O  O9  1  0.14023411  0.07268704  0.80844131  1
  Ge  Ge10  1  0.69152723  0.68519879  0.00000000  1
  Ge  Ge11  1  0.19152723  0.31480121  0.00000000  1
  Bi  Bi12  1  0.24613692  0.61227988  0.66180400  1
  Bi  Bi13  1  0.74613692  0.38772012  0.33819600  1
  Bi  Bi14  1  0.74613692  0.04952412  0.66180400  1
  Bi  Bi15  1  0.24613692  0.95047588  0.33819600  1
