# generated using pymatgen
data_Ca4I6O
_symmetry_space_group_name_H-M   'P 1'
_cell_length_a   10.28063360
_cell_length_b   10.28044959
_cell_length_c   7.78734783
_cell_angle_alpha   89.99937256
_cell_angle_beta   90.00031330
_cell_angle_gamma   119.99940998
_symmetry_Int_Tables_number   1
_chemical_formula_structural   Ca4I6O
_chemical_formula_sum   'Ca8 I12 O2'
_cell_volume   712.77880334
_cell_formula_units_Z   2
loop_
 _symmetry_equiv_pos_site_id
 _symmetry_equiv_pos_as_xyz
  1  'x, y, z'
loop_
 _atom_site_type_symbol
 _atom_site_label
 _atom_site_symmetry_multiplicity
 _atom_site_fract_x
 _atom_site_fract_y
 _atom_site_fract_z
 _atom_site_occupancy
  Ca  Ca0  1  0.21027881  0.78972312  0.01699688  1
  Ca  Ca1  1  0.33331397  0.66668275  0.39839257  1
  Ca  Ca2  1  0.21028331  0.42057676  0.01701724  1
  Ca  Ca3  1  0.57941590  0.78971808  0.01701982  1
  Ca  Ca4  1  0.42058410  0.21030217  0.51701982  1
  Ca  Ca5  1  0.66668603  0.33336879  0.89839257  1
  Ca  Ca6  1  0.78972119  0.57944431  0.51699688  1
  Ca  Ca7  1  0.78971669  0.21029345  0.51701724  1
  I  I8  1  0.13533465  0.86467491  0.38623971  1
  I  I9  1  0.07629435  0.53814739  0.70780799  1
  I  I10  1  0.13531931  0.27063465  0.38624349  1
  I  I11  1  0.46185639  0.92371833  0.70780287  1
  I  I12  1  0.46183660  0.53816254  0.70780402  1
  I  I13  1  0.27064200  0.13533161  0.88624111  1
  I  I14  1  0.72935800  0.86468961  0.38624111  1
  I  I15  1  0.53814361  0.46186194  0.20780287  1
  I  I16  1  0.53816340  0.07632594  0.20780402  1
  I  I17  1  0.86466535  0.72934026  0.88623971  1
  I  I18  1  0.92370565  0.46185304  0.20780799  1
  I  I19  1  0.86468069  0.13531535  0.88624349  1
  O  O20  1  0.33332627  0.66668013  0.10919431  1
  O  O21  1  0.66667373  0.33335386  0.60919431  1
