# generated using pymatgen
data_LiV2CrO6
_symmetry_space_group_name_H-M   'P 1'
_cell_length_a   5.45210045
_cell_length_b   5.45072166
_cell_length_c   5.45035812
_cell_angle_alpha   55.00552181
_cell_angle_beta   54.99615731
_cell_angle_gamma   54.99938219
_symmetry_Int_Tables_number   1
_chemical_formula_structural   LiV2CrO6
_chemical_formula_sum   'Li1 V2 Cr1 O6'
_cell_volume   101.20913020
_cell_formula_units_Z   1
loop_
 _symmetry_equiv_pos_site_id
 _symmetry_equiv_pos_as_xyz
  1  'x, y, z'
loop_
 _atom_site_type_symbol
 _atom_site_label
 _atom_site_symmetry_multiplicity
 _atom_site_fract_x
 _atom_site_fract_y
 _atom_site_fract_z
 _atom_site_occupancy
  Li  Li0  1  0.28014573  0.28033467  0.28005778  1
  V  V1  1  0.00294935  0.00274633  0.00289993  1
  V  V2  1  0.49588728  0.49571922  0.49578239  1
  Cr  Cr3  1  0.80229758  0.80227745  0.80219633  1
  O  O4  1  0.10652465  0.72228901  0.39491029  1
  O  O5  1  0.39520134  0.10651583  0.72236686  1
  O  O6  1  0.72257887  0.39507514  0.10618240  1
  O  O7  1  0.22512947  0.61836178  0.85199485  1
  O  O8  1  0.61816002  0.85199580  0.22536568  1
  O  O9  1  0.85192572  0.22548376  0.61824249  1
