# generated using pymatgen
data_CdBiO3
_symmetry_space_group_name_H-M   'P 1'
_cell_length_a   5.89793158
_cell_length_b   5.89791198
_cell_length_c   6.09703100
_cell_angle_alpha   61.07327218
_cell_angle_beta   118.92406708
_cell_angle_gamma   120.00560618
_symmetry_Int_Tables_number   1
_chemical_formula_structural   CdBiO3
_chemical_formula_sum   'Cd2 Bi2 O6'
_cell_volume   152.35221765
_cell_formula_units_Z   2
loop_
 _symmetry_equiv_pos_site_id
 _symmetry_equiv_pos_as_xyz
  1  'x, y, z'
loop_
 _atom_site_type_symbol
 _atom_site_label
 _atom_site_symmetry_multiplicity
 _atom_site_fract_x
 _atom_site_fract_y
 _atom_site_fract_z
 _atom_site_occupancy
  Cd  Cd0  1  0.63597335  0.36397139  0.90807036  1
  Cd  Cd1  1  0.36509975  0.63493874  0.09522917  1
  Bi  Bi2  1  0.85807123  0.14195739  0.57422025  1
  Bi  Bi3  1  0.15032307  0.84956504  0.45085410  1
  O  O4  1  0.95803648  0.74029540  0.73534574  1
  O  O5  1  0.51763414  0.04190445  0.73540878  1
  O  O6  1  0.25965665  0.48247394  0.73533666  1
  O  O7  1  0.78417031  0.56705669  0.25517729  1
  O  O8  1  0.43289750  0.96193758  0.25515210  1
  O  O9  1  0.03813753  0.21589939  0.25520455  1
