# generated using pymatgen
data_Li2NbFe3O8
_symmetry_space_group_name_H-M   'P 1'
_cell_length_a   8.60529353
_cell_length_b   8.60532783
_cell_length_c   8.60591296
_cell_angle_alpha   89.99973274
_cell_angle_beta   90.00142168
_cell_angle_gamma   90.00179671
_symmetry_Int_Tables_number   1
_chemical_formula_structural   Li2NbFe3O8
_chemical_formula_sum   'Li8 Nb4 Fe12 O32'
_cell_volume   637.27966087
_cell_formula_units_Z   4
loop_
 _symmetry_equiv_pos_site_id
 _symmetry_equiv_pos_as_xyz
  1  'x, y, z'
loop_
 _atom_site_type_symbol
 _atom_site_label
 _atom_site_symmetry_multiplicity
 _atom_site_fract_x
 _atom_site_fract_y
 _atom_site_fract_z
 _atom_site_occupancy
  Li  Li0  1  0.99953076  0.99953459  0.99954385  1
  Li  Li1  1  0.25045710  0.25045498  0.25045511  1
  Li  Li2  1  0.24955264  0.74954561  0.75046048  1
  Li  Li3  1  0.50047199  0.00046198  0.49953517  1
  Li  Li4  1  0.49953779  0.50047511  0.00047435  1
  Li  Li5  1  0.75045781  0.24952982  0.74954890  1
  Li  Li6  1  0.74953881  0.75046538  0.24953409  1
  Li  Li7  1  0.00047141  0.49953354  0.50047064  1
  Nb  Nb8  1  0.12497875  0.87503008  0.37502489  1
  Nb  Nb9  1  0.37500015  0.12498134  0.87501867  1
  Nb  Nb10  1  0.62499348  0.62495507  0.62498983  1
  Nb  Nb11  1  0.87501461  0.37504108  0.12499277  1
  Fe  Fe12  1  0.11788215  0.13210709  0.62501513  1
  Fe  Fe13  1  0.12502130  0.38214421  0.86789905  1
  Fe  Fe14  1  0.13210821  0.62504394  0.11790148  1
  Fe  Fe15  1  0.36789031  0.37497284  0.61788296  1
  Fe  Fe16  1  0.37498103  0.61790607  0.36791376  1
  Fe  Fe17  1  0.38212224  0.86788460  0.12502512  1
  Fe  Fe18  1  0.61787232  0.36787749  0.37496659  1
  Fe  Fe19  1  0.62502821  0.11788055  0.13207442  1
  Fe  Fe20  1  0.63209564  0.87497419  0.88209415  1
  Fe  Fe21  1  0.86787873  0.12501772  0.38210559  1
  Fe  Fe22  1  0.87497897  0.88212406  0.63211177  1
  Fe  Fe23  1  0.88211458  0.63212719  0.87498489  1
  O  O24  1  0.11209620  0.11073025  0.38427112  1
  O  O25  1  0.11575234  0.88790865  0.61072449  1
  O  O26  1  0.11472699  0.61474795  0.88531078  1
  O  O27  1  0.13930874  0.13790100  0.86576806  1
  O  O28  1  0.11072814  0.38426608  0.11207067  1
  O  O29  1  0.13529247  0.36472468  0.63531069  1
  O  O30  1  0.13420993  0.63932706  0.36211899  1
  O  O31  1  0.13791158  0.86579856  0.13931458  1
  O  O32  1  0.36209231  0.13420138  0.63930847  1
  O  O33  1  0.36580402  0.36067582  0.86210739  1
  O  O34  1  0.36470849  0.63527558  0.13531088  1
  O  O35  1  0.38927570  0.61574342  0.61208980  1
  O  O36  1  0.36069511  0.86210043  0.36576605  1
  O  O37  1  0.38527040  0.38527377  0.38531047  1
  O  O38  1  0.38426488  0.11209697  0.11071420  1
  O  O39  1  0.38789767  0.88927286  0.88426339  1
  O  O40  1  0.61209854  0.38927213  0.61575163  1
  O  O41  1  0.61574676  0.61210311  0.38929695  1
  O  O42  1  0.61473056  0.88526831  0.11468108  1
  O  O43  1  0.63930538  0.36211658  0.13422872  1
  O  O44  1  0.61073043  0.11573919  0.88791525  1
  O  O45  1  0.63526762  0.13527888  0.36468655  1
  O  O46  1  0.63422171  0.86067516  0.63789713  1
  O  O47  1  0.63791723  0.63421403  0.86070004  1
  O  O48  1  0.86207260  0.36579341  0.36069837  1
  O  O49  1  0.86577881  0.13932999  0.13790284  1
  O  O50  1  0.86472121  0.86472648  0.86470903  1
  O  O51  1  0.88926776  0.88425275  0.38791837  1
  O  O52  1  0.86069831  0.63789911  0.63424781  1
  O  O53  1  0.88527461  0.11472768  0.61469035  1
  O  O54  1  0.88424826  0.38790162  0.88928833  1
  O  O55  1  0.88790523  0.61073056  0.11574488  1
