# generated using pymatgen
data_Lu2Si2O7
_symmetry_space_group_name_H-M   'P 1'
_cell_length_a   6.58290763
_cell_length_b   6.58290763
_cell_length_c   12.00969254
_cell_angle_alpha   90.00000000
_cell_angle_beta   90.00000000
_cell_angle_gamma   90.00000000
_symmetry_Int_Tables_number   1
_chemical_formula_structural   Lu2Si2O7
_chemical_formula_sum   'Lu8 Si8 O28'
_cell_volume   520.43609743
_cell_formula_units_Z   4
loop_
 _symmetry_equiv_pos_site_id
 _symmetry_equiv_pos_as_xyz
  1  'x, y, z'
loop_
 _atom_site_type_symbol
 _atom_site_label
 _atom_site_symmetry_multiplicity
 _atom_site_fract_x
 _atom_site_fract_y
 _atom_site_fract_z
 _atom_site_occupancy
  O  O0  1  0.86105591  0.30736449  0.95190808  1
  O  O1  1  0.13894409  0.69263551  0.45190808  1
  O  O2  1  0.30736449  0.86105591  0.04809192  1
  O  O3  1  0.80736449  0.63894409  0.70190808  1
  O  O4  1  0.19263551  0.36105591  0.20190808  1
  O  O5  1  0.63894409  0.80736449  0.29809192  1
  O  O6  1  0.36105591  0.19263551  0.79809192  1
  O  O7  1  0.69263551  0.13894409  0.54809192  1
  O  O8  1  0.66422815  0.94467455  0.92654185  1
  O  O9  1  0.33577185  0.05532545  0.42654185  1
  O  O10  1  0.94467455  0.66422815  0.07345815  1
  O  O11  1  0.44467455  0.83577185  0.67654185  1
  O  O12  1  0.55532545  0.16422815  0.17654185  1
  O  O13  1  0.83577185  0.44467455  0.32345815  1
  O  O14  1  0.16422815  0.55532545  0.82345815  1
  O  O15  1  0.05532545  0.33577185  0.57345815  1
  O  O16  1  0.81549697  0.18450303  0.75000000  1
  O  O17  1  0.31549697  0.31549697  0.00000000  1
  O  O18  1  0.68450303  0.68450303  0.50000000  1
  O  O19  1  0.18450303  0.81549697  0.25000000  1
  O  O20  1  0.07046131  0.97045460  0.62460901  1
  O  O21  1  0.52954540  0.57046131  0.87460901  1
  O  O22  1  0.47045460  0.42953869  0.37460901  1
  O  O23  1  0.57046131  0.52954540  0.12539099  1
  O  O24  1  0.42953869  0.47045460  0.62539099  1
  O  O25  1  0.92953869  0.02954540  0.12460901  1
  O  O26  1  0.97045460  0.07046131  0.37539099  1
  O  O27  1  0.02954540  0.92953869  0.87539099  1
  Si  Si28  1  0.84762014  0.09809933  0.87847759  1
  Si  Si29  1  0.15237986  0.90190067  0.37847759  1
  Si  Si30  1  0.09809933  0.84762014  0.12152241  1
  Si  Si31  1  0.59809933  0.65237986  0.62847759  1
  Si  Si32  1  0.40190067  0.34762014  0.12847759  1
  Si  Si33  1  0.65237986  0.59809933  0.37152241  1
  Si  Si34  1  0.34762014  0.40190067  0.87152241  1
  Si  Si35  1  0.90190067  0.15237986  0.62152241  1
  Lu  Lu36  1  0.64746965  0.12474537  0.36642348  1
  Lu  Lu37  1  0.35253035  0.87525463  0.86642348  1
  Lu  Lu38  1  0.12474537  0.64746965  0.63357652  1
  Lu  Lu39  1  0.62474537  0.85253035  0.11642348  1
  Lu  Lu40  1  0.37525463  0.14746965  0.61642348  1
  Lu  Lu41  1  0.85253035  0.62474537  0.88357652  1
  Lu  Lu42  1  0.14746965  0.37525463  0.38357652  1
  Lu  Lu43  1  0.87525463  0.35253035  0.13357652  1
