# generated using pymatgen
data_S
_symmetry_space_group_name_H-M   'P 1'
_cell_length_a   8.44086816
_cell_length_b   8.44086773
_cell_length_c   4.40337820
_cell_angle_alpha   90.00000000
_cell_angle_beta   90.00000000
_cell_angle_gamma   120.00000169
_symmetry_Int_Tables_number   1
_chemical_formula_structural   S
_chemical_formula_sum   S9
_cell_volume   271.70074181
_cell_formula_units_Z   9
loop_
 _symmetry_equiv_pos_site_id
 _symmetry_equiv_pos_as_xyz
  1  'x, y, z'
loop_
 _atom_site_type_symbol
 _atom_site_label
 _atom_site_symmetry_multiplicity
 _atom_site_fract_x
 _atom_site_fract_y
 _atom_site_fract_z
 _atom_site_occupancy
  S  S0  1  0.10011045  0.10011045  0.50000000  1
  S  S1  1  0.44225154  0.68882102  0.72599526  1
  S  S2  1  0.68882102  0.44225154  0.27400474  1
  S  S3  1  0.89988955  0.00000000  0.16666700  1
  S  S4  1  0.24656948  0.55774846  0.05932926  1
  S  S5  1  0.31117898  0.75343052  0.39266226  1
  S  S6  1  0.55774846  0.24656948  0.94067074  1
  S  S7  1  0.75343052  0.31117898  0.60733774  1
  S  S8  1  0.00000000  0.89988955  0.83333300  1
