# generated using pymatgen
data_SbO2F
_symmetry_space_group_name_H-M   'P 1'
_cell_length_a   5.10515915
_cell_length_b   5.55783131
_cell_length_c   5.10515924
_cell_angle_alpha   119.36449136
_cell_angle_beta   61.70833194
_cell_angle_gamma   119.36449590
_symmetry_Int_Tables_number   1
_chemical_formula_structural   SbO2F
_chemical_formula_sum   'Sb2 O4 F2'
_cell_volume   104.69311951
_cell_formula_units_Z   2
loop_
 _symmetry_equiv_pos_site_id
 _symmetry_equiv_pos_as_xyz
  1  'x, y, z'
loop_
 _atom_site_type_symbol
 _atom_site_label
 _atom_site_symmetry_multiplicity
 _atom_site_fract_x
 _atom_site_fract_y
 _atom_site_fract_z
 _atom_site_occupancy
  Sb  Sb0  1  0.68832626  0.14939829  0.75161567  1
  Sb  Sb1  1  0.25161567  0.64939829  0.18832626  1
  O  O2  1  0.09584308  0.41085885  0.82444084  1
  O  O3  1  0.46194715  0.40184617  0.11674478  1
  O  O4  1  0.32444084  0.91085885  0.59584308  1
  O  O5  1  0.61674478  0.90184617  0.96194715  1
  F  F6  1  0.84478410  0.40154469  0.45872812  1
  F  F7  1  0.95872812  0.90154469  0.34478410  1
