# generated using pymatgen
data_MgCrF6
_symmetry_space_group_name_H-M   'P 1'
_cell_length_a   5.39693464
_cell_length_b   5.39693463
_cell_length_c   5.39693464
_cell_angle_alpha   58.13115065
_cell_angle_beta   58.13115066
_cell_angle_gamma   58.13115060
_symmetry_Int_Tables_number   1
_chemical_formula_structural   MgCrF6
_chemical_formula_sum   'Mg1 Cr1 F6'
_cell_volume   106.39263241
_cell_formula_units_Z   1
loop_
 _symmetry_equiv_pos_site_id
 _symmetry_equiv_pos_as_xyz
  1  'x, y, z'
loop_
 _atom_site_type_symbol
 _atom_site_label
 _atom_site_symmetry_multiplicity
 _atom_site_fract_x
 _atom_site_fract_y
 _atom_site_fract_z
 _atom_site_occupancy
  F  F0  1  0.32566966  0.15349572  0.76215438  1
  F  F1  1  0.15349572  0.76215438  0.32566966  1
  F  F2  1  0.23784562  0.67433034  0.84650428  1
  F  F3  1  0.84650428  0.23784562  0.67433034  1
  F  F4  1  0.67433034  0.84650428  0.23784562  1
  F  F5  1  0.76215438  0.32566966  0.15349572  1
  Mg  Mg6  1  0.50000000  0.50000000  0.50000000  1
  Cr  Cr7  1  0.00000000  0.00000000  0.00000000  1
