# generated using pymatgen
data_Na8BeAl4Si7(ClO12)2
_symmetry_space_group_name_H-M   'P 1'
_cell_length_a   15.59329720
_cell_length_b   8.98611435
_cell_length_c   8.98611453
_cell_angle_alpha   89.99999727
_cell_angle_beta   54.81063438
_cell_angle_gamma   54.81063355
_symmetry_Int_Tables_number   1
_chemical_formula_structural   Na8BeAl4Si7(ClO12)2
_chemical_formula_sum   'Na8 Be1 Al4 Si7 Cl2 O24'
_cell_volume   729.66415396
_cell_formula_units_Z   1
loop_
 _symmetry_equiv_pos_site_id
 _symmetry_equiv_pos_as_xyz
  1  'x, y, z'
loop_
 _atom_site_type_symbol
 _atom_site_label
 _atom_site_symmetry_multiplicity
 _atom_site_fract_x
 _atom_site_fract_y
 _atom_site_fract_z
 _atom_site_occupancy
  Al  Al0  1  0.00033557  0.49953841  0.74757052  1
  Al  Al1  1  0.49966443  0.25242948  0.50020956  1
  Al  Al2  1  0.49966443  0.74824167  0.50046159  1
  Al  Al3  1  0.00033557  0.49979044  0.25175833  1
  Be  Be4  1  0.75000000  0.25000000  0.75000000  1
  Cl  Cl5  1  0.00384087  0.99615913  0.99615913  1
  Cl  Cl6  1  0.49615913  0.00384087  0.00384087  1
  Na  Na7  1  0.31627866  0.00518110  0.99718076  1
  Na  Na8  1  0.18372134  0.00281924  0.63773842  1
  Na  Na9  1  0.18372134  0.62973808  0.99481890  1
  Na  Na10  1  0.31627866  0.36226158  0.37026192  1
  Na  Na11  1  0.81093994  0.00938373  0.98667522  1
  Na  Na12  1  0.68906006  0.01332478  0.63126360  1
  Na  Na13  1  0.68906006  0.60855509  0.99061627  1
  Na  Na14  1  0.81093994  0.36873640  0.39144491  1
  O  O15  1  0.15369456  0.29659052  0.99130502  1
  O  O16  1  0.14835372  0.99535835  0.30782202  1
  O  O17  1  0.05082128  0.29058022  0.59426626  1
  O  O18  1  0.05082128  0.60777722  0.30409117  1
  O  O19  1  0.15369456  0.39602036  0.70130587  1
  O  O20  1  0.14835372  0.70793422  0.39547055  1
  O  O21  1  0.34630544  0.00869498  0.60397964  1
  O  O22  1  0.35164628  0.60452945  0.00464165  1
  O  O23  1  0.35164628  0.69217798  0.29206578  1
  O  O24  1  0.34630544  0.29869413  0.70340948  1
  O  O25  1  0.44917872  0.40573374  0.39222278  1
  O  O26  1  0.64568532  0.30723731  0.99646282  1
  O  O27  1  0.65385674  0.99231784  0.29709002  1
  O  O28  1  0.54012392  0.31677794  0.61874364  1
  O  O29  1  0.54012392  0.60297421  0.30100852  1
  O  O30  1  0.44917872  0.69590883  0.70941978  1
  O  O31  1  0.64568532  0.40139205  0.71216654  1
  O  O32  1  0.65385674  0.69996867  0.39519650  1
  O  O33  1  0.85431468  0.00353718  0.59860795  1
  O  O34  1  0.84614326  0.60480350  0.00768216  1
  O  O35  1  0.85431468  0.28783346  0.69276269  1
  O  O36  1  0.84614326  0.70290998  0.30003133  1
  O  O37  1  0.95987608  0.38125636  0.39702579  1
  O  O38  1  0.95987608  0.69899148  0.68322206  1
  Si  Si39  1  0.25000000  0.75000000  0.25000000  1
  Si  Si40  1  0.25000000  0.25000000  0.75000000  1
  Si  Si41  1  0.50481387  0.49119691  0.23615144  1
  Si  Si42  1  0.50481387  0.49917535  0.75422082  1
  Si  Si43  1  0.75000000  0.75000000  0.25000000  1
  Si  Si44  1  0.99518613  0.24577918  0.50880309  1
  Si  Si45  1  0.99518613  0.76384856  0.50082465  1
