# generated using pymatgen
data_GaS
_symmetry_space_group_name_H-M   'P 1'
_cell_length_a   3.62691739
_cell_length_b   3.62691739
_cell_length_c   17.42527246
_cell_angle_alpha   90.00000000
_cell_angle_beta   90.00000000
_cell_angle_gamma   119.99999991
_symmetry_Int_Tables_number   1
_chemical_formula_structural   GaS
_chemical_formula_sum   'Ga4 S4'
_cell_volume   198.51143880
_cell_formula_units_Z   4
loop_
 _symmetry_equiv_pos_site_id
 _symmetry_equiv_pos_as_xyz
  1  'x, y, z'
loop_
 _atom_site_type_symbol
 _atom_site_label
 _atom_site_symmetry_multiplicity
 _atom_site_fract_x
 _atom_site_fract_y
 _atom_site_fract_z
 _atom_site_occupancy
  S  S0  1  0.33333333  0.66666667  0.88315006  1
  S  S1  1  0.66666667  0.33333333  0.38315006  1
  S  S2  1  0.66666667  0.33333333  0.11684994  1
  S  S3  1  0.33333333  0.66666667  0.61684994  1
  Ga  Ga4  1  0.33333333  0.66666667  0.32094657  1
  Ga  Ga5  1  0.66666667  0.33333333  0.82094657  1
  Ga  Ga6  1  0.66666667  0.33333333  0.67905343  1
  Ga  Ga7  1  0.33333333  0.66666667  0.17905343  1
