# generated using pymatgen
data_CdCu2GeS4
_symmetry_space_group_name_H-M   'P 1'
_cell_length_a   6.34310423
_cell_length_b   6.60492944
_cell_length_c   7.76274012
_cell_angle_alpha   90.00000000
_cell_angle_beta   90.00000000
_cell_angle_gamma   90.00000000
_symmetry_Int_Tables_number   1
_chemical_formula_structural   CdCu2GeS4
_chemical_formula_sum   'Cd2 Cu4 Ge2 S8'
_cell_volume   325.22586495
_cell_formula_units_Z   2
loop_
 _symmetry_equiv_pos_site_id
 _symmetry_equiv_pos_as_xyz
  1  'x, y, z'
loop_
 _atom_site_type_symbol
 _atom_site_label
 _atom_site_symmetry_multiplicity
 _atom_site_fract_x
 _atom_site_fract_y
 _atom_site_fract_z
 _atom_site_occupancy
  S  S0  1  0.10200654  0.84406242  0.50000000  1
  S  S1  1  0.60200654  0.15593758  0.00000000  1
  S  S2  1  0.65087777  0.20506720  0.50000000  1
  S  S3  1  0.15087777  0.79493280  0.00000000  1
  S  S4  1  0.64234516  0.65425940  0.23095673  1
  S  S5  1  0.64234516  0.65425940  0.76904327  1
  S  S6  1  0.14234516  0.34574060  0.73095673  1
  S  S7  1  0.14234516  0.34574060  0.26904327  1
  Cu  Cu8  1  0.00564762  0.67160914  0.25112369  1
  Cu  Cu9  1  0.50564762  0.32839086  0.75112369  1
  Cu  Cu10  1  0.50564762  0.32839086  0.24887631  1
  Cu  Cu11  1  0.00564762  0.67160914  0.74887631  1
  Ge  Ge12  1  0.00916831  0.17742181  0.50000000  1
  Ge  Ge13  1  0.50916831  0.82257819  0.00000000  1
  Cd  Cd14  1  0.50696181  0.84306688  0.50000000  1
  Cd  Cd15  1  0.00696181  0.15693312  0.00000000  1
