# generated using pymatgen
data_Hg3(SeCl)2
_symmetry_space_group_name_H-M   'P 1'
_cell_length_a   8.11759976
_cell_length_b   8.11759976
_cell_length_c   8.11759976
_cell_angle_alpha   109.47122066
_cell_angle_beta   109.47122066
_cell_angle_gamma   109.47122058
_symmetry_Int_Tables_number   1
_chemical_formula_structural   Hg3(SeCl)2
_chemical_formula_sum   'Hg6 Se4 Cl4'
_cell_volume   411.77598325
_cell_formula_units_Z   2
loop_
 _symmetry_equiv_pos_site_id
 _symmetry_equiv_pos_as_xyz
  1  'x, y, z'
loop_
 _atom_site_type_symbol
 _atom_site_label
 _atom_site_symmetry_multiplicity
 _atom_site_fract_x
 _atom_site_fract_y
 _atom_site_fract_z
 _atom_site_occupancy
  Cl  Cl0  1  0.48597303  0.50000000  0.00000000  1
  Cl  Cl1  1  0.50000000  0.00000000  0.48597303  1
  Cl  Cl2  1  0.00000000  0.48597303  0.50000000  1
  Cl  Cl3  1  0.01402697  0.01402697  0.01402697  1
  Se  Se4  1  0.95942660  0.50000000  0.00000000  1
  Se  Se5  1  0.50000000  0.00000000  0.95942660  1
  Se  Se6  1  0.54057340  0.54057340  0.54057340  1
  Se  Se7  1  0.00000000  0.95942660  0.50000000  1
  Hg  Hg8  1  0.75000000  0.93994570  0.18994570  1
  Hg  Hg9  1  0.31005430  0.25000000  0.56005430  1
  Hg  Hg10  1  0.56005430  0.31005430  0.25000000  1
  Hg  Hg11  1  0.18994570  0.75000000  0.93994570  1
  Hg  Hg12  1  0.93994570  0.18994570  0.75000000  1
  Hg  Hg13  1  0.25000000  0.56005430  0.31005430  1
