# generated using pymatgen
data_K2NaMo(OF)3
_symmetry_space_group_name_H-M   'P 1'
_cell_length_a   6.02602382
_cell_length_b   12.15866996
_cell_length_c   10.55985273
_cell_angle_alpha   29.71003184
_cell_angle_beta   55.21790137
_cell_angle_gamma   60.28655647
_symmetry_Int_Tables_number   1
_chemical_formula_structural   K2NaMo(OF)3
_chemical_formula_sum   'K4 Na2 Mo2 O6 F6'
_cell_volume   314.94288146
_cell_formula_units_Z   2
loop_
 _symmetry_equiv_pos_site_id
 _symmetry_equiv_pos_as_xyz
  1  'x, y, z'
loop_
 _atom_site_type_symbol
 _atom_site_label
 _atom_site_symmetry_multiplicity
 _atom_site_fract_x
 _atom_site_fract_y
 _atom_site_fract_z
 _atom_site_occupancy
  K  K0  1  0.25512098  0.99959948  0.24208048  1
  K  K1  1  0.26135375  0.50256708  0.23801775  1
  K  K2  1  0.76002944  0.00184425  0.74048588  1
  K  K3  1  0.75751613  0.49721272  0.74331569  1
  Na  Na4  1  0.50589753  0.00174082  0.49282881  1
  Na  Na5  1  0.50535117  0.50096045  0.49389571  1
  Mo  Mo6  1  0.02339801  0.00033750  0.97708548  1
  Mo  Mo7  1  0.02083292  0.50171753  0.97627128  1
  O  O8  1  0.22890666  0.99712112  0.77526287  1
  O  O9  1  0.19192725  0.78790227  0.23131884  1
  O  O10  1  0.77181990  0.28762726  0.22963569  1
  O  O11  1  0.22432182  0.50387109  0.76903444  1
  O  O12  1  0.19519911  0.71055685  0.80754949  1
  O  O13  1  0.77352808  0.21312767  0.80240696  1
  F  F14  1  0.23858496  0.26455672  0.23221797  1
  F  F15  1  0.76655149  0.00536917  0.22899852  1
  F  F16  1  0.24373952  0.23564648  0.75910087  1
  F  F17  1  0.76116088  0.50408880  0.23068774  1
  F  F18  1  0.76542804  0.76525496  0.23265517  1
  F  F19  1  0.76521137  0.73833179  0.75989136  1
