# generated using pymatgen
data_Li2TeO4
_symmetry_space_group_name_H-M   'P 1'
_cell_length_a   6.13451733
_cell_length_b   6.13451733
_cell_length_c   8.46094958
_cell_angle_alpha   90.00000000
_cell_angle_beta   90.00000000
_cell_angle_gamma   90.00000000
_symmetry_Int_Tables_number   1
_chemical_formula_structural   Li2TeO4
_chemical_formula_sum   'Li8 Te4 O16'
_cell_volume   318.40501718
_cell_formula_units_Z   4
loop_
 _symmetry_equiv_pos_site_id
 _symmetry_equiv_pos_as_xyz
  1  'x, y, z'
loop_
 _atom_site_type_symbol
 _atom_site_label
 _atom_site_symmetry_multiplicity
 _atom_site_fract_x
 _atom_site_fract_y
 _atom_site_fract_z
 _atom_site_occupancy
  Li  Li0  1  0.74591926  0.74591926  0.87500000  1
  Li  Li1  1  0.25408074  0.74591926  0.12500000  1
  Li  Li2  1  0.74591926  0.25408074  0.62500000  1
  Li  Li3  1  0.25408074  0.25408074  0.37500000  1
  Li  Li4  1  0.71257162  0.50000000  0.25000000  1
  Li  Li5  1  0.50000000  0.28742838  0.00000000  1
  Li  Li6  1  0.50000000  0.71257162  0.50000000  1
  Li  Li7  1  0.28742838  0.50000000  0.75000000  1
  O  O8  1  0.22475153  0.98147056  0.51650239  1
  O  O9  1  0.77524847  0.98147056  0.48349761  1
  O  O10  1  0.01852944  0.22475153  0.76650239  1
  O  O11  1  0.77524847  0.01852944  0.01650239  1
  O  O12  1  0.23127828  0.46722686  0.00587213  1
  O  O13  1  0.53277314  0.23127828  0.25587213  1
  O  O14  1  0.46722686  0.76872172  0.75587213  1
  O  O15  1  0.23127828  0.53277314  0.49412787  1
  O  O16  1  0.76872172  0.46722686  0.99412787  1
  O  O17  1  0.76872172  0.53277314  0.50587213  1
  O  O18  1  0.46722686  0.23127828  0.74412787  1
  O  O19  1  0.53277314  0.76872172  0.24412787  1
  O  O20  1  0.98147056  0.22475153  0.23349761  1
  O  O21  1  0.22475153  0.01852944  0.98349761  1
  O  O22  1  0.98147056  0.77524847  0.26650239  1
  O  O23  1  0.01852944  0.77524847  0.73349761  1
  Te  Te24  1  0.00000000  0.73124695  0.50000000  1
  Te  Te25  1  0.26875305  0.00000000  0.75000000  1
  Te  Te26  1  0.73124695  0.00000000  0.25000000  1
  Te  Te27  1  0.00000000  0.26875305  0.00000000  1
