# generated using pymatgen
data_Sr2Si
_symmetry_space_group_name_H-M   'P 1'
_cell_length_a   5.14963245
_cell_length_b   8.13175474
_cell_length_c   9.61716422
_cell_angle_alpha   90.00000000
_cell_angle_beta   90.00000000
_cell_angle_gamma   90.00000000
_symmetry_Int_Tables_number   1
_chemical_formula_structural   Sr2Si
_chemical_formula_sum   'Sr8 Si4'
_cell_volume   402.72402273
_cell_formula_units_Z   4
loop_
 _symmetry_equiv_pos_site_id
 _symmetry_equiv_pos_as_xyz
  1  'x, y, z'
loop_
 _atom_site_type_symbol
 _atom_site_label
 _atom_site_symmetry_multiplicity
 _atom_site_fract_x
 _atom_site_fract_y
 _atom_site_fract_z
 _atom_site_occupancy
  Si  Si0  1  0.25000000  0.25230403  0.10245584  1
  Si  Si1  1  0.75000000  0.74769597  0.89754416  1
  Si  Si2  1  0.25000000  0.75230403  0.39754416  1
  Si  Si3  1  0.75000000  0.24769597  0.60245584  1
  Sr  Sr4  1  0.75000000  0.98118167  0.17330025  1
  Sr  Sr5  1  0.25000000  0.01881833  0.82669975  1
  Sr  Sr6  1  0.75000000  0.48118167  0.32669975  1
  Sr  Sr7  1  0.25000000  0.51881833  0.67330025  1
  Sr  Sr8  1  0.25000000  0.65048618  0.07785313  1
  Sr  Sr9  1  0.75000000  0.34951382  0.92214687  1
  Sr  Sr10  1  0.25000000  0.15048618  0.42214687  1
  Sr  Sr11  1  0.75000000  0.84951382  0.57785313  1
