# generated using pymatgen
data_Te7As5I
_symmetry_space_group_name_H-M   'P 1'
_cell_length_a   4.03226847
_cell_length_b   7.72513588
_cell_length_c   14.06283174
_cell_angle_alpha   78.02301475
_cell_angle_beta   81.75732487
_cell_angle_gamma   74.87156223
_symmetry_Int_Tables_number   1
_chemical_formula_structural   Te7As5I
_chemical_formula_sum   'Te7 As5 I1'
_cell_volume   411.81773475
_cell_formula_units_Z   1
loop_
 _symmetry_equiv_pos_site_id
 _symmetry_equiv_pos_as_xyz
  1  'x, y, z'
loop_
 _atom_site_type_symbol
 _atom_site_label
 _atom_site_symmetry_multiplicity
 _atom_site_fract_x
 _atom_site_fract_y
 _atom_site_fract_z
 _atom_site_occupancy
  As  As0  1  0.49692127  0.00532491  0.00083255  1
  As  As1  1  0.80610360  0.12809718  0.25969563  1
  As  As2  1  0.12260506  0.29112831  0.46366157  1
  As  As3  1  0.45109756  0.41966671  0.67813817  1
  As  As4  1  0.76903958  0.56534895  0.89657190  1
  Te  Te5  1  0.61416133  0.44960236  0.32207498  1
  Te  Te6  1  0.92467558  0.59763701  0.55301183  1
  Te  Te7  1  0.23128943  0.74874338  0.78867777  1
  Te  Te8  1  0.95964794  0.25342075  0.82728336  1
  Te  Te9  1  0.64584957  0.11334077  0.59496009  1
  Te  Te10  1  0.33492807  0.95664658  0.37349727  1
  Te  Te11  1  0.03519936  0.82169219  0.10790909  1
  I  I12  1  0.30308166  0.31785089  0.07598578  1
