# generated using pymatgen
data_ReSe2
_symmetry_space_group_name_H-M   'P 1'
_cell_length_a   6.66990999
_cell_length_b   6.79280670
_cell_length_c   7.19998192
_cell_angle_alpha   91.82629945
_cell_angle_beta   104.14796331
_cell_angle_gamma   118.81263982
_symmetry_Int_Tables_number   1
_chemical_formula_structural   ReSe2
_chemical_formula_sum   'Re4 Se8'
_cell_volume   272.82338782
_cell_formula_units_Z   4
loop_
 _symmetry_equiv_pos_site_id
 _symmetry_equiv_pos_as_xyz
  1  'x, y, z'
loop_
 _atom_site_type_symbol
 _atom_site_label
 _atom_site_symmetry_multiplicity
 _atom_site_fract_x
 _atom_site_fract_y
 _atom_site_fract_z
 _atom_site_occupancy
  Re  Re0  1  0.06423192  0.31616584  0.49084595  1
  Re  Re1  1  0.93576808  0.68383416  0.50915405  1
  Re  Re2  1  0.48674535  0.29089271  0.49678493  1
  Re  Re3  1  0.51325465  0.70910729  0.50321507  1
  Se  Se4  1  0.25534885  0.38640181  0.22383199  1
  Se  Se5  1  0.74465115  0.61359819  0.77616801  1
  Se  Se6  1  0.72589224  0.34274275  0.25541970  1
  Se  Se7  1  0.27410776  0.65725725  0.74458030  1
  Se  Se8  1  0.22038907  0.10654149  0.70845219  1
  Se  Se9  1  0.77961093  0.89345851  0.29154781  1
  Se  Se10  1  0.75078818  0.13443945  0.68247401  1
  Se  Se11  1  0.24921182  0.86556055  0.31752599  1
