# generated using pymatgen
data_BaH2
_symmetry_space_group_name_H-M   'P 1'
_cell_length_a   4.17469483
_cell_length_b   6.84929653
_cell_length_c   7.88257968
_cell_angle_alpha   90.00000000
_cell_angle_beta   90.00000000
_cell_angle_gamma   90.00000000
_symmetry_Int_Tables_number   1
_chemical_formula_structural   BaH2
_chemical_formula_sum   'Ba4 H8'
_cell_volume   225.39229842
_cell_formula_units_Z   4
loop_
 _symmetry_equiv_pos_site_id
 _symmetry_equiv_pos_as_xyz
  1  'x, y, z'
loop_
 _atom_site_type_symbol
 _atom_site_label
 _atom_site_symmetry_multiplicity
 _atom_site_fract_x
 _atom_site_fract_y
 _atom_site_fract_z
 _atom_site_occupancy
  H  H0  1  0.25000000  0.52814870  0.31948637  1
  H  H1  1  0.75000000  0.47185130  0.68051363  1
  H  H2  1  0.25000000  0.02814870  0.18051363  1
  H  H3  1  0.75000000  0.97185130  0.81948637  1
  H  H4  1  0.75000000  0.35500016  0.07161892  1
  H  H5  1  0.25000000  0.64499984  0.92838108  1
  H  H6  1  0.75000000  0.85500016  0.42838108  1
  H  H7  1  0.25000000  0.14499984  0.57161892  1
  Ba  Ba8  1  0.25000000  0.76080253  0.61243756  1
  Ba  Ba9  1  0.75000000  0.23919747  0.38756244  1
  Ba  Ba10  1  0.25000000  0.26080253  0.88756244  1
  Ba  Ba11  1  0.75000000  0.73919747  0.11243756  1
