# generated using pymatgen
data_MnP2O7
_symmetry_space_group_name_H-M   'P 1'
_cell_length_a   4.91583322
_cell_length_b   4.91593746
_cell_length_c   12.41078237
_cell_angle_alpha   89.99997197
_cell_angle_beta   89.99954838
_cell_angle_gamma   119.99996064
_symmetry_Int_Tables_number   1
_chemical_formula_structural   MnP2O7
_chemical_formula_sum   'Mn2 P4 O14'
_cell_volume   259.73678083
_cell_formula_units_Z   2
loop_
 _symmetry_equiv_pos_site_id
 _symmetry_equiv_pos_as_xyz
  1  'x, y, z'
loop_
 _atom_site_type_symbol
 _atom_site_label
 _atom_site_symmetry_multiplicity
 _atom_site_fract_x
 _atom_site_fract_y
 _atom_site_fract_z
 _atom_site_occupancy
  Mn  Mn0  1  0.00003910  0.00005140  0.01060553  1
  Mn  Mn1  1  0.00000137  0.99994789  0.51060670  1
  P  P2  1  0.33331556  0.66660636  0.63309834  1
  P  P3  1  0.33335374  0.66668309  0.88801717  1
  P  P4  1  0.66670876  0.33339858  0.13309606  1
  P  P5  1  0.66668317  0.33331187  0.38801709  1
  O  O6  1  0.06410387  0.72170975  0.91989859  1
  O  O7  1  0.06369018  0.72116955  0.60128103  1
  O  O8  1  0.33332260  0.66666307  0.76055645  1
  O  O9  1  0.27871985  0.34238725  0.60130359  1
  O  O10  1  0.27834687  0.34242595  0.91988300  1
  O  O11  1  0.65763437  0.93593412  0.91988083  1
  O  O12  1  0.34251745  0.06382687  0.10128938  1
  O  O13  1  0.65751423  0.93620278  0.60128568  1
  O  O14  1  0.34238785  0.06403287  0.41988806  1
  O  O15  1  0.72169617  0.65759519  0.41987798  1
  O  O16  1  0.72131405  0.65760495  0.10130662  1
  O  O17  1  0.66669726  0.33332344  0.26055085  1
  O  O18  1  0.93630356  0.27883462  0.10126808  1
  O  O19  1  0.93594897  0.27828941  0.41989197  1
