# generated using pymatgen
data_ZnSbAsO5
_symmetry_space_group_name_H-M   'P 1'
_cell_length_a   7.82994326
_cell_length_b   7.51125681
_cell_length_c   8.75980749
_cell_angle_alpha   90.00069484
_cell_angle_beta   90.00228878
_cell_angle_gamma   89.99978858
_symmetry_Int_Tables_number   1
_chemical_formula_structural   ZnSbAsO5
_chemical_formula_sum   'Zn4 Sb4 As4 O20'
_cell_volume   515.18805817
_cell_formula_units_Z   4
loop_
 _symmetry_equiv_pos_site_id
 _symmetry_equiv_pos_as_xyz
  1  'x, y, z'
loop_
 _atom_site_type_symbol
 _atom_site_label
 _atom_site_symmetry_multiplicity
 _atom_site_fract_x
 _atom_site_fract_y
 _atom_site_fract_z
 _atom_site_occupancy
  Zn  Zn0  1  0.99186708  0.63369385  0.07470266  1
  Zn  Zn1  1  0.50811748  0.36632829  0.57474045  1
  Zn  Zn2  1  0.49189982  0.86631410  0.92525415  1
  Zn  Zn3  1  0.00811900  0.13370857  0.42529515  1
  Sb  Sb4  1  0.02576625  0.47802713  0.74491148  1
  Sb  Sb5  1  0.47425901  0.52193051  0.24492011  1
  Sb  Sb6  1  0.52573739  0.02192612  0.25507638  1
  Sb  Sb7  1  0.97423580  0.97803124  0.75508586  1
  As  As8  1  0.63243921  0.30006942  0.90949130  1
  As  As9  1  0.86756506  0.69994431  0.40948050  1
  As  As10  1  0.13243241  0.19993335  0.09051266  1
  As  As11  1  0.36756476  0.80005566  0.59051650  1
  O  O12  1  0.82274625  0.30462350  0.80632282  1
  O  O13  1  0.67722709  0.69539566  0.30636973  1
  O  O14  1  0.32276461  0.19538522  0.19364062  1
  O  O15  1  0.17726540  0.80463228  0.69369093  1
  O  O16  1  0.46698234  0.31911386  0.78044324  1
  O  O17  1  0.03299989  0.68093748  0.28039122  1
  O  O18  1  0.96698859  0.18096074  0.21960761  1
  O  O19  1  0.53302582  0.81910090  0.71954852  1
  O  O20  1  0.62117786  0.09227525  0.99233333  1
  O  O21  1  0.87886643  0.90770972  0.49233924  1
  O  O22  1  0.12114850  0.40771595  0.00765449  1
  O  O23  1  0.37881091  0.59227719  0.50766958  1
  O  O24  1  0.62913223  0.46463048  0.04571483  1
  O  O25  1  0.87094640  0.53532744  0.54566607  1
  O  O26  1  0.12904298  0.03533329  0.95434442  1
  O  O27  1  0.37086892  0.96463381  0.45428052  1
  O  O28  1  0.92357908  0.67477150  0.87402805  1
  O  O29  1  0.57642001  0.32522067  0.37407542  1
  O  O30  1  0.42359101  0.82521572  0.12592075  1
  O  O31  1  0.07641141  0.17477979  0.62596842  1
