# generated using pymatgen
data_Pr4Ag2Se7
_symmetry_space_group_name_H-M   'P 1'
_cell_length_a   7.56419600
_cell_length_b   7.88456133
_cell_length_c   15.30425538
_cell_angle_alpha   110.79691743
_cell_angle_beta   109.10749840
_cell_angle_gamma   108.90406657
_symmetry_Int_Tables_number   1
_chemical_formula_structural   Pr4Ag2Se7
_chemical_formula_sum   'Pr8 Ag4 Se14'
_cell_volume   699.01872539
_cell_formula_units_Z   2
loop_
 _symmetry_equiv_pos_site_id
 _symmetry_equiv_pos_as_xyz
  1  'x, y, z'
loop_
 _atom_site_type_symbol
 _atom_site_label
 _atom_site_symmetry_multiplicity
 _atom_site_fract_x
 _atom_site_fract_y
 _atom_site_fract_z
 _atom_site_occupancy
  Pr  Pr0  1  0.13052859  0.75313952  0.95447596  1
  Pr  Pr1  1  0.24473646  0.63447252  0.68781217  1
  Pr  Pr2  1  0.36911212  0.25884818  0.81218783  1
  Pr  Pr3  1  0.72157667  0.84418760  0.54552404  1
  Pr  Pr4  1  0.58752035  0.34086997  0.60125762  1
  Pr  Pr5  1  0.88500510  0.13835472  0.89874238  1
  Pr  Pr6  1  0.60577606  0.37050375  0.12226532  1
  Pr  Pr7  1  0.86124543  0.12597311  0.37773468  1
  Ag  Ag8  1  0.12506737  0.75389443  0.43485442  1
  Ag  Ag9  1  0.28511494  0.64068698  0.19207729  1
  Ag  Ag10  1  0.40096035  0.25653239  0.30792271  1
  Ag  Ag11  1  0.75535853  0.88418559  0.06514558  1
  Se  Se12  1  0.99250623  0.36657270  0.75402343  1
  Se  Se13  1  0.48362350  0.00155236  0.91922227  1
  Se  Se14  1  0.51140969  0.00140597  0.68203804  1
  Se  Se15  1  0.14517896  0.16310781  0.58077773  1
  Se  Se16  1  0.30950173  0.45710775  0.46006919  1
  Se  Se17  1  0.64733362  0.63732989  0.81796196  1
  Se  Se18  1  0.44381311  0.94830733  0.40105208  1
  Se  Se19  1  0.57001937  0.03608253  0.17214436  1
  Se  Se20  1  0.14170895  0.14620317  0.09894792  1
  Se  Se21  1  0.34447830  0.49549991  0.00280354  1
  Se  Se22  1  0.98445936  0.85852583  0.74597657  1
  Se  Se23  1  0.72573065  0.69179381  0.32785564  1
  Se  Se24  1  0.83887122  0.48989283  0.49719646  1
  Se  Se25  1  0.88936335  0.53696937  0.03993081  1
