# generated using pymatgen
data_SbH6CN3F4
_symmetry_space_group_name_H-M   'P 1'
_cell_length_a   5.16422846
_cell_length_b   10.63327977
_cell_length_c   12.50923608
_cell_angle_alpha   90.00000000
_cell_angle_beta   90.00000000
_cell_angle_gamma   90.00000000
_symmetry_Int_Tables_number   1
_chemical_formula_structural   SbH6CN3F4
_chemical_formula_sum   'Sb4 H24 C4 N12 F16'
_cell_volume   686.91575310
_cell_formula_units_Z   4
loop_
 _symmetry_equiv_pos_site_id
 _symmetry_equiv_pos_as_xyz
  1  'x, y, z'
loop_
 _atom_site_type_symbol
 _atom_site_label
 _atom_site_symmetry_multiplicity
 _atom_site_fract_x
 _atom_site_fract_y
 _atom_site_fract_z
 _atom_site_occupancy
  Sb  Sb0  1  0.39945656  0.12008031  0.07108878  1
  Sb  Sb1  1  0.10054344  0.87991969  0.57108878  1
  Sb  Sb2  1  0.89945656  0.37991969  0.92891122  1
  Sb  Sb3  1  0.60054344  0.62008031  0.42891122  1
  H  H4  1  0.62456508  0.60391168  0.05738488  1
  H  H5  1  0.87543492  0.39608832  0.55738488  1
  H  H6  1  0.12456508  0.89608832  0.94261512  1
  H  H7  1  0.37543492  0.10391168  0.44261512  1
  H  H8  1  0.57892373  0.76714884  0.07390634  1
  H  H9  1  0.92107627  0.23285116  0.57390634  1
  H  H10  1  0.07892373  0.73285116  0.92609366  1
  H  H11  1  0.42107627  0.26714884  0.42609366  1
  H  H12  1  0.33467589  0.46505471  0.14485709  1
  H  H13  1  0.16532411  0.53494529  0.64485709  1
  H  H14  1  0.83467589  0.03494529  0.85514291  1
  H  H15  1  0.66532411  0.96505471  0.35514291  1
  H  H16  1  0.08904915  0.52706728  0.22574988  1
  H  H17  1  0.41095085  0.47293272  0.72574988  1
  H  H18  1  0.58904915  0.97293272  0.77425012  1
  H  H19  1  0.91095085  0.02706728  0.27425012  1
  H  H20  1  0.08053162  0.74294690  0.26590614  1
  H  H21  1  0.41946838  0.25705310  0.76590614  1
  H  H22  1  0.58053162  0.75705310  0.73409386  1
  H  H23  1  0.91946838  0.24294690  0.23409386  1
  H  H24  1  0.25070817  0.84365757  0.18141373  1
  H  H25  1  0.24929183  0.15634243  0.68141373  1
  H  H26  1  0.75070817  0.65634243  0.81858627  1
  H  H27  1  0.74929183  0.34365757  0.31858627  1
  C  C28  1  0.33183651  0.65647958  0.15951669  1
  C  C29  1  0.16816349  0.34352042  0.65951669  1
  C  C30  1  0.83183651  0.84352042  0.84048331  1
  C  C31  1  0.66816349  0.15647958  0.34048331  1
  N  N32  1  0.52821061  0.67697042  0.09214452  1
  N  N33  1  0.97178939  0.32302958  0.59214452  1
  N  N34  1  0.02821061  0.82302958  0.90785548  1
  N  N35  1  0.47178939  0.17697042  0.40785548  1
  N  N36  1  0.25734179  0.53969244  0.18417414  1
  N  N37  1  0.24265821  0.46030756  0.68417414  1
  N  N38  1  0.75734179  0.96030756  0.81582586  1
  N  N39  1  0.74265821  0.03969244  0.31582586  1
  N  N40  1  0.21442387  0.75448156  0.20665749  1
  N  N41  1  0.28557613  0.24551844  0.70665749  1
  N  N42  1  0.71442387  0.74551844  0.79334251  1
  N  N43  1  0.78557613  0.25448156  0.29334251  1
  F  F44  1  0.15183674  0.09626596  0.95234392  1
  F  F45  1  0.34816326  0.90373404  0.45234392  1
  F  F46  1  0.65183674  0.40373404  0.04765608  1
  F  F47  1  0.84816326  0.59626596  0.54765608  1
  F  F48  1  0.13967735  0.26898602  0.10625900  1
  F  F49  1  0.36032265  0.73101398  0.60625900  1
  F  F50  1  0.63967735  0.23101398  0.89374100  1
  F  F51  1  0.86032265  0.76898602  0.39374100  1
  F  F52  1  0.17059082  0.03164841  0.17718456  1
  F  F53  1  0.32940918  0.96835159  0.67718456  1
  F  F54  1  0.67059082  0.46835159  0.82281544  1
  F  F55  1  0.82940918  0.53164841  0.32281544  1
  F  F56  1  0.48413575  0.93458736  0.03607345  1
  F  F57  1  0.01586425  0.06541264  0.53607345  1
  F  F58  1  0.98413575  0.56541264  0.96392655  1
  F  F59  1  0.51586425  0.43458736  0.46392655  1
