# generated using pymatgen
data_Na2VO3
_symmetry_space_group_name_H-M   'P 1'
_cell_length_a   6.36473833
_cell_length_b   6.38383455
_cell_length_c   4.97701743
_cell_angle_alpha   90.00000000
_cell_angle_beta   90.00000000
_cell_angle_gamma   60.09890356
_symmetry_Int_Tables_number   1
_chemical_formula_structural   Na2VO3
_chemical_formula_sum   'Na4 V2 O6'
_cell_volume   175.30485072
_cell_formula_units_Z   2
loop_
 _symmetry_equiv_pos_site_id
 _symmetry_equiv_pos_as_xyz
  1  'x, y, z'
loop_
 _atom_site_type_symbol
 _atom_site_label
 _atom_site_symmetry_multiplicity
 _atom_site_fract_x
 _atom_site_fract_y
 _atom_site_fract_z
 _atom_site_occupancy
  Na  Na0  1  0.50006880  0.66871593  0.00959654  1
  Na  Na1  1  0.83121527  0.66871593  0.50959654  1
  Na  Na2  1  0.49993120  0.33128407  0.50959654  1
  Na  Na3  1  0.16878473  0.33128407  0.00959654  1
  V  V4  1  0.82985350  0.00000000  0.04356828  1
  V  V5  1  0.17014650  0.00000000  0.54356828  1
  O  O6  1  0.83856339  0.72259979  0.98853002  1
  O  O7  1  0.43883682  0.72259979  0.48853002  1
  O  O8  1  0.56116318  0.27740021  0.98853002  1
  O  O9  1  0.16143661  0.27740021  0.48853002  1
  O  O10  1  0.88741741  0.00000000  0.41817861  1
  O  O11  1  0.11258259  0.00000000  0.91817861  1
