# generated using pymatgen
data_Ba(NdS2)2
_symmetry_space_group_name_H-M   'P 1'
_cell_length_a   7.67853872
_cell_length_b   7.67853893
_cell_length_c   7.67853897
_cell_angle_alpha   109.46163064
_cell_angle_beta   109.46162787
_cell_angle_gamma   109.49039769
_symmetry_Int_Tables_number   1
_chemical_formula_structural   Ba(NdS2)2
_chemical_formula_sum   'Ba2 Nd4 S8'
_cell_volume   348.50890061
_cell_formula_units_Z   2
loop_
 _symmetry_equiv_pos_site_id
 _symmetry_equiv_pos_as_xyz
  1  'x, y, z'
loop_
 _atom_site_type_symbol
 _atom_site_label
 _atom_site_symmetry_multiplicity
 _atom_site_fract_x
 _atom_site_fract_y
 _atom_site_fract_z
 _atom_site_occupancy
  Ba  Ba0  1  0.62500000  0.37500000  0.25000000  1
  Ba  Ba1  1  0.87500000  0.12500000  0.75000000  1
  Nd  Nd2  1  0.12853656  0.75000000  0.87853656  1
  Nd  Nd3  1  0.25000000  0.62853656  0.37853656  1
  Nd  Nd4  1  0.37146344  0.25000000  0.62146344  1
  Nd  Nd5  1  0.75000000  0.87146344  0.12146344  1
  S  S6  1  0.01757212  0.85772143  0.49531856  1
  S  S7  1  0.14227857  0.13759713  0.15985070  1
  S  S8  1  0.35772143  0.51757212  0.99531856  1
  S  S9  1  0.48242788  0.97774644  0.84014930  1
  S  S10  1  0.63759713  0.64227857  0.65985070  1
  S  S11  1  0.47774644  0.98242788  0.34014930  1
  S  S12  1  0.86240287  0.52225356  0.00468144  1
  S  S13  1  0.02225356  0.36240287  0.50468144  1
