# generated using pymatgen
data_Li3Cr2FeO6
_symmetry_space_group_name_H-M   'P 1'
_cell_length_a   15.46557200
_cell_length_b   9.87191987
_cell_length_c   9.87191966
_cell_angle_alpha   17.31639191
_cell_angle_beta   16.75355081
_cell_angle_gamma   16.75355521
_symmetry_Int_Tables_number   1
_chemical_formula_structural   Li3Cr2FeO6
_chemical_formula_sum   'Li3 Cr2 Fe1 O6'
_cell_volume   111.55091350
_cell_formula_units_Z   1
loop_
 _symmetry_equiv_pos_site_id
 _symmetry_equiv_pos_as_xyz
  1  'x, y, z'
loop_
 _atom_site_type_symbol
 _atom_site_label
 _atom_site_symmetry_multiplicity
 _atom_site_fract_x
 _atom_site_fract_y
 _atom_site_fract_z
 _atom_site_occupancy
  Li  Li0  1  0.16666700  0.50000000  0.50000000  1
  Li  Li1  1  0.49891626  0.50060363  0.50060363  1
  Li  Li2  1  0.83441674  0.49939637  0.49939637  1
  Cr  Cr3  1  0.99898635  0.00073059  0.00073059  1
  Cr  Cr4  1  0.33434665  0.99926941  0.99926941  1
  Fe  Fe5  1  0.66666700  0.00000000  0.00000000  1
  O  O6  1  0.24420109  0.26029686  0.26029686  1
  O  O7  1  0.58099054  0.25844949  0.25844949  1
  O  O8  1  0.08913291  0.73970314  0.73970314  1
  O  O9  1  0.91664478  0.25531145  0.25531145  1
  O  O10  1  0.41668922  0.74468855  0.74468855  1
  O  O11  1  0.75234346  0.74155051  0.74155051  1
