# generated using pymatgen
data_Ga3Os
_symmetry_space_group_name_H-M   'P 1'
_cell_length_a   6.55376175
_cell_length_b   6.55376175
_cell_length_c   6.83667047
_cell_angle_alpha   90.00000000
_cell_angle_beta   90.00000000
_cell_angle_gamma   90.00000000
_symmetry_Int_Tables_number   1
_chemical_formula_structural   Ga3Os
_chemical_formula_sum   'Ga12 Os4'
_cell_volume   293.64725535
_cell_formula_units_Z   4
loop_
 _symmetry_equiv_pos_site_id
 _symmetry_equiv_pos_as_xyz
  1  'x, y, z'
loop_
 _atom_site_type_symbol
 _atom_site_label
 _atom_site_symmetry_multiplicity
 _atom_site_fract_x
 _atom_site_fract_y
 _atom_site_fract_z
 _atom_site_occupancy
  Ga  Ga0  1  0.15461481  0.34538519  0.98511088  1
  Ga  Ga1  1  0.15461481  0.34538519  0.51488912  1
  Ga  Ga2  1  0.34538519  0.84538519  0.01488912  1
  Ga  Ga3  1  0.65461481  0.15461481  0.01488912  1
  Ga  Ga4  1  0.50000000  0.50000000  0.25000000  1
  Ga  Ga5  1  0.00000000  0.00000000  0.75000000  1
  Ga  Ga6  1  0.34538519  0.84538519  0.48511088  1
  Ga  Ga7  1  0.84538519  0.65461481  0.98511088  1
  Ga  Ga8  1  0.65461481  0.15461481  0.48511088  1
  Ga  Ga9  1  0.00000000  0.00000000  0.25000000  1
  Ga  Ga10  1  0.84538519  0.65461481  0.51488912  1
  Ga  Ga11  1  0.50000000  0.50000000  0.75000000  1
  Os  Os12  1  0.33969050  0.16030950  0.25000000  1
  Os  Os13  1  0.16030950  0.66030950  0.75000000  1
  Os  Os14  1  0.66030950  0.83969050  0.25000000  1
  Os  Os15  1  0.83969050  0.33969050  0.75000000  1
