# generated using pymatgen
data_Pb7(BrF6)2
_symmetry_space_group_name_H-M   'P 1'
_cell_length_a   10.50597041
_cell_length_b   10.50597041
_cell_length_c   4.05551003
_cell_angle_alpha   90.00000000
_cell_angle_beta   90.00000000
_cell_angle_gamma   120.00000002
_symmetry_Int_Tables_number   1
_chemical_formula_structural   Pb7(BrF6)2
_chemical_formula_sum   'Pb7 Br2 F12'
_cell_volume   387.65773863
_cell_formula_units_Z   1
loop_
 _symmetry_equiv_pos_site_id
 _symmetry_equiv_pos_as_xyz
  1  'x, y, z'
loop_
 _atom_site_type_symbol
 _atom_site_label
 _atom_site_symmetry_multiplicity
 _atom_site_fract_x
 _atom_site_fract_y
 _atom_site_fract_z
 _atom_site_occupancy
  F  F0  1  0.42567292  0.03949563  0.50000000  1
  F  F1  1  0.61382271  0.57432708  0.50000000  1
  F  F2  1  0.96050437  0.38617729  0.50000000  1
  F  F3  1  0.12893142  0.20639498  0.50000000  1
  F  F4  1  0.07746356  0.87106858  0.50000000  1
  F  F5  1  0.79360502  0.92253644  0.50000000  1
  F  F6  1  0.56774360  0.95084265  0.00000000  1
  F  F7  1  0.04915735  0.61690095  0.00000000  1
  F  F8  1  0.38309905  0.43225640  0.00000000  1
  F  F9  1  0.27490191  0.11430666  0.00000000  1
  F  F10  1  0.83940475  0.72509809  0.00000000  1
  F  F11  1  0.88569334  0.16059525  0.00000000  1
  Br  Br12  1  0.66666667  0.33333333  0.00000000  1
  Br  Br13  1  0.33333333  0.66666667  0.50000000  1
  Pb  Pb14  1  0.58853824  0.68824836  0.00000000  1
  Pb  Pb15  1  0.71352312  0.10646901  0.50000000  1
  Pb  Pb16  1  0.89353099  0.60705411  0.50000000  1
  Pb  Pb17  1  0.39294589  0.28647688  0.50000000  1
  Pb  Pb18  1  0.09971012  0.41146176  0.00000000  1
  Pb  Pb19  1  0.31175164  0.90028988  0.00000000  1
  Pb  Pb20  1  0.00000000  0.00000000  0.00000000  1
