# generated using pymatgen
data_Li2Mn3NiO8
_symmetry_space_group_name_H-M   'P 1'
_cell_length_a   8.28385014
_cell_length_b   8.28384478
_cell_length_c   8.28384192
_cell_angle_alpha   90.00508033
_cell_angle_beta   90.00798112
_cell_angle_gamma   89.99896524
_symmetry_Int_Tables_number   1
_chemical_formula_structural   Li2Mn3NiO8
_chemical_formula_sum   'Li8 Mn12 Ni4 O32'
_cell_volume   568.45485866
_cell_formula_units_Z   4
loop_
 _symmetry_equiv_pos_site_id
 _symmetry_equiv_pos_as_xyz
  1  'x, y, z'
loop_
 _atom_site_type_symbol
 _atom_site_label
 _atom_site_symmetry_multiplicity
 _atom_site_fract_x
 _atom_site_fract_y
 _atom_site_fract_z
 _atom_site_occupancy
  Li  Li0  1  0.00373959  0.00372932  0.00372739  1
  Li  Li1  1  0.24627128  0.24626230  0.24626908  1
  Li  Li2  1  0.25373247  0.75372784  0.74626733  1
  Li  Li3  1  0.49627055  0.99626693  0.50373289  1
  Li  Li4  1  0.50372761  0.49627480  0.99626065  1
  Li  Li5  1  0.74626232  0.25372977  0.75372466  1
  Li  Li6  1  0.75372751  0.74626759  0.25374032  1
  Li  Li7  1  0.99626845  0.50374084  0.49627348  1
  Mn  Mn8  1  0.12118235  0.12882308  0.62500448  1
  Mn  Mn9  1  0.12500610  0.37882887  0.87116675  1
  Mn  Mn10  1  0.12883130  0.62500364  0.12117043  1
  Mn  Mn11  1  0.37118117  0.37500360  0.62118024  1
  Mn  Mn12  1  0.37500698  0.62117947  0.37118400  1
  Mn  Mn13  1  0.37882979  0.87117167  0.12499632  1
  Mn  Mn14  1  0.62116977  0.37117902  0.37501180  1
  Mn  Mn15  1  0.62499317  0.12117110  0.12882516  1
  Mn  Mn16  1  0.62881733  0.87499627  0.87881506  1
  Mn  Mn17  1  0.87116804  0.12499640  0.37883620  1
  Mn  Mn18  1  0.87499177  0.87882224  0.62882733  1
  Mn  Mn19  1  0.87882036  0.62882662  0.87498957  1
  Ni  Ni20  1  0.12500033  0.87499861  0.37500176  1
  Ni  Ni21  1  0.37500212  0.12500049  0.87499911  1
  Ni  Ni22  1  0.62500010  0.62500130  0.62499959  1
  Ni  Ni23  1  0.87499842  0.37500030  0.12499902  1
  O  O24  1  0.10129774  0.12388490  0.39210104  1
  O  O25  1  0.10790495  0.89870245  0.62389910  1
  O  O26  1  0.11552551  0.61553057  0.88446602  1
  O  O27  1  0.12390551  0.39209660  0.10128649  1
  O  O28  1  0.12612949  0.14870346  0.85790846  1
  O  O29  1  0.13447725  0.36552878  0.63446586  1
  O  O30  1  0.14210167  0.62611275  0.35129789  1
  O  O31  1  0.14870971  0.85791042  0.12610538  1
  O  O32  1  0.35130444  0.14209265  0.62612043  1
  O  O33  1  0.35792070  0.37388687  0.85129606  1
  O  O34  1  0.36553421  0.63446878  0.13447714  1
  O  O35  1  0.37390122  0.85129546  0.35790925  1
  O  O36  1  0.37613341  0.60791450  0.60130647  1
  O  O37  1  0.38446800  0.38447406  0.38447570  1
  O  O38  1  0.39208538  0.10129488  0.12387487  1
  O  O39  1  0.39870200  0.87611207  0.89208063  1
  O  O40  1  0.60129999  0.37613237  0.60792424  1
  O  O41  1  0.60791197  0.60130397  0.37614134  1
  O  O42  1  0.61553239  0.88446560  0.11552046  1
  O  O43  1  0.62387431  0.10790406  0.89869567  1
  O  O44  1  0.62609092  0.35129335  0.14209955  1
  O  O45  1  0.63446408  0.13447425  0.36552924  1
  O  O46  1  0.64207963  0.87386961  0.64869684  1
  O  O47  1  0.64869413  0.64208789  0.87385981  1
  O  O48  1  0.85128783  0.35790917  0.37390924  1
  O  O49  1  0.85789850  0.12609934  0.14870717  1
  O  O50  1  0.86552231  0.86553007  0.86552996  1
  O  O51  1  0.87386352  0.64869832  0.64208108  1
  O  O52  1  0.87610267  0.89208379  0.39871013  1
  O  O53  1  0.88447563  0.11552553  0.61553843  1
  O  O54  1  0.89209566  0.39870886  0.87608734  1
  O  O55  1  0.89870639  0.62390259  0.10789610  1
