# generated using pymatgen
data_BrF3
_symmetry_space_group_name_H-M   'P 1'
_cell_length_a   4.87029859
_cell_length_b   4.87029860
_cell_length_c   6.22883341
_cell_angle_alpha   90.00000000
_cell_angle_beta   90.00000000
_cell_angle_gamma   106.88786976
_symmetry_Int_Tables_number   1
_chemical_formula_structural   BrF3
_chemical_formula_sum   'Br2 F6'
_cell_volume   141.37517318
_cell_formula_units_Z   2
loop_
 _symmetry_equiv_pos_site_id
 _symmetry_equiv_pos_as_xyz
  1  'x, y, z'
loop_
 _atom_site_type_symbol
 _atom_site_label
 _atom_site_symmetry_multiplicity
 _atom_site_fract_x
 _atom_site_fract_y
 _atom_site_fract_z
 _atom_site_occupancy
  F  F0  1  0.06762820  0.93237180  0.09080574  1
  F  F1  1  0.93237180  0.06762820  0.59080574  1
  F  F2  1  0.26236244  0.73763756  0.49889727  1
  F  F3  1  0.73763756  0.26236244  -0.00110273  1
  F  F4  1  0.37013153  0.62986847  0.88252852  1
  F  F5  1  0.62986847  0.37013153  0.38252852  1
  Br  Br6  1  0.83980946  0.16019054  0.25776847  1
  Br  Br7  1  0.16019054  0.83980946  0.75776847  1
