# generated using pymatgen
data_BPS4
_symmetry_space_group_name_H-M   'P 1'
_cell_length_a   5.28669259
_cell_length_b   6.26021568
_cell_length_c   6.69368365
_cell_angle_alpha   117.87998869
_cell_angle_beta   113.25983641
_cell_angle_gamma   90.00000002
_symmetry_Int_Tables_number   1
_chemical_formula_structural   BPS4
_chemical_formula_sum   'B1 P1 S4'
_cell_volume   175.19094360
_cell_formula_units_Z   1
loop_
 _symmetry_equiv_pos_site_id
 _symmetry_equiv_pos_as_xyz
  1  'x, y, z'
loop_
 _atom_site_type_symbol
 _atom_site_label
 _atom_site_symmetry_multiplicity
 _atom_site_fract_x
 _atom_site_fract_y
 _atom_site_fract_z
 _atom_site_occupancy
  B  B0  1  0.50000000  0.00000000  0.00000000  1
  P  P1  1  0.00000000  0.00000000  0.00000000  1
  S  S2  1  0.63358972  0.73078580  0.79974669  1
  S  S3  1  0.83384303  0.26921420  0.20025331  1
  S  S4  1  0.36641028  0.93103911  0.20025331  1
  S  S5  1  0.16615697  0.06896089  0.79974669  1
