# generated using pymatgen
data_Li7Mn(OF)3
_symmetry_space_group_name_H-M   'P 1'
_cell_length_a   5.62023877
_cell_length_b   6.10600345
_cell_length_c   5.78071665
_cell_angle_alpha   115.56293562
_cell_angle_beta   123.35183461
_cell_angle_gamma   60.21913442
_symmetry_Int_Tables_number   1
_chemical_formula_structural   Li7Mn(OF)3
_chemical_formula_sum   'Li7 Mn1 O3 F3'
_cell_volume   140.34616051
_cell_formula_units_Z   1
loop_
 _symmetry_equiv_pos_site_id
 _symmetry_equiv_pos_as_xyz
  1  'x, y, z'
loop_
 _atom_site_type_symbol
 _atom_site_label
 _atom_site_symmetry_multiplicity
 _atom_site_fract_x
 _atom_site_fract_y
 _atom_site_fract_z
 _atom_site_occupancy
  Li  Li0  1  0.22916180  0.36666213  0.45730076  1
  Li  Li1  1  0.46493178  0.64667837  0.89010703  1
  Li  Li2  1  0.67659369  0.01379696  0.38777752  1
  Li  Li3  1  0.34608539  0.98444149  0.58899616  1
  Li  Li4  1  0.50160559  0.39306810  0.11945903  1
  Li  Li5  1  0.90309743  0.33808042  0.78193750  1
  Li  Li6  1  0.78104965  0.61931423  0.51144278  1
  Mn  Mn7  1  0.97631149  0.00344118  0.04679807  1
  O  O8  1  0.60901705  0.24344892  0.77061981  1
  O  O9  1  0.41901100  0.77214252  0.23084764  1
  O  O10  1  0.92617773  0.24323580  0.42415696  1
  F  F11  1  0.07374115  0.73497200  0.57536869  1
  F  F12  1  0.26886321  0.25052364  0.11049902  1
  F  F13  1  0.71332102  0.72896123  0.83995600  1
