# generated using pymatgen
data_Na4SnSe4
_symmetry_space_group_name_H-M   'P 1'
_cell_length_a   7.34334390
_cell_length_b   8.28976980
_cell_length_c   8.28976980
_cell_angle_alpha   90.00000000
_cell_angle_beta   90.00000000
_cell_angle_gamma   90.00000000
_symmetry_Int_Tables_number   1
_chemical_formula_structural   Na4SnSe4
_chemical_formula_sum   'Na8 Sn2 Se8'
_cell_volume   504.63667345
_cell_formula_units_Z   2
loop_
 _symmetry_equiv_pos_site_id
 _symmetry_equiv_pos_as_xyz
  1  'x, y, z'
loop_
 _atom_site_type_symbol
 _atom_site_label
 _atom_site_symmetry_multiplicity
 _atom_site_fract_x
 _atom_site_fract_y
 _atom_site_fract_z
 _atom_site_occupancy
  Na  Na0  1  0.02879913  0.19710575  0.59486233  1
  Na  Na1  1  0.97120087  0.59486233  0.80289425  1
  Na  Na2  1  0.97120087  0.40513767  0.19710575  1
  Na  Na3  1  0.02879913  0.80289425  0.40513767  1
  Na  Na4  1  0.47120087  0.69710575  0.90513767  1
  Na  Na5  1  0.47120087  0.30289425  0.09486233  1
  Na  Na6  1  0.52879913  0.90513767  0.30289425  1
  Na  Na7  1  0.52879913  0.09486233  0.69710575  1
  Se  Se8  1  0.69085879  0.25790571  0.40493934  1
  Se  Se9  1  0.69085879  0.74209429  0.59506066  1
  Se  Se10  1  0.19085879  0.09506066  0.24209429  1
  Se  Se11  1  0.80914121  0.24209429  0.90493934  1
  Se  Se12  1  0.80914121  0.75790571  0.09506066  1
  Se  Se13  1  0.19085879  0.90493934  0.75790571  1
  Se  Se14  1  0.30914121  0.59506066  0.25790571  1
  Se  Se15  1  0.30914121  0.40493934  0.74209429  1
  Sn  Sn16  1  0.00000000  0.00000000  0.00000000  1
  Sn  Sn17  1  0.50000000  0.50000000  0.50000000  1
