# generated using pymatgen
data_SnF2
_symmetry_space_group_name_H-M   'P 1'
_cell_length_a   5.23018752
_cell_length_b   5.23018752
_cell_length_c   8.49166622
_cell_angle_alpha   90.00000000
_cell_angle_beta   90.00000000
_cell_angle_gamma   90.00000000
_symmetry_Int_Tables_number   1
_chemical_formula_structural   SnF2
_chemical_formula_sum   'Sn4 F8'
_cell_volume   232.28835330
_cell_formula_units_Z   4
loop_
 _symmetry_equiv_pos_site_id
 _symmetry_equiv_pos_as_xyz
  1  'x, y, z'
loop_
 _atom_site_type_symbol
 _atom_site_label
 _atom_site_symmetry_multiplicity
 _atom_site_fract_x
 _atom_site_fract_y
 _atom_site_fract_z
 _atom_site_occupancy
  F  F0  1  0.74330569  0.85791731  0.32853230  1
  F  F1  1  0.25669431  0.14208269  0.82853230  1
  F  F2  1  0.85791731  0.74330569  0.67146770  1
  F  F3  1  0.35791731  0.75669431  0.07853230  1
  F  F4  1  0.14208269  0.25669431  0.17146770  1
  F  F5  1  0.24330569  0.64208269  0.42146770  1
  F  F6  1  0.75669431  0.35791731  0.92146770  1
  F  F7  1  0.64208269  0.24330569  0.57853230  1
  Sn  Sn8  1  0.00377865  0.00377865  0.50000000  1
  Sn  Sn9  1  0.49622135  0.50377865  0.75000000  1
  Sn  Sn10  1  0.50377865  0.49622135  0.25000000  1
  Sn  Sn11  1  0.99622135  0.99622135  0.00000000  1
