# generated using pymatgen
data_Na3MoN3
_symmetry_space_group_name_H-M   'P 1'
_cell_length_a   13.96002430
_cell_length_b   10.97485533
_cell_length_c   6.42522003
_cell_angle_alpha   90.00000000
_cell_angle_beta   117.11766766
_cell_angle_gamma   90.00000000
_symmetry_Int_Tables_number   1
_chemical_formula_structural   Na3MoN3
_chemical_formula_sum   'Na24 Mo8 N24'
_cell_volume   876.18994366
_cell_formula_units_Z   8
loop_
 _symmetry_equiv_pos_site_id
 _symmetry_equiv_pos_as_xyz
  1  'x, y, z'
loop_
 _atom_site_type_symbol
 _atom_site_label
 _atom_site_symmetry_multiplicity
 _atom_site_fract_x
 _atom_site_fract_y
 _atom_site_fract_z
 _atom_site_occupancy
  Na  Na0  1  0.99078840  0.28285625  0.02142591  1
  Na  Na1  1  0.99078840  0.71714375  0.52142591  1
  Na  Na2  1  0.88088151  0.48155838  0.57582648  1
  Na  Na3  1  0.88088151  0.51844162  0.07582648  1
  Na  Na4  1  0.12412329  0.48009371  0.80850766  1
  Na  Na5  1  0.12412329  0.51990629  0.30850766  1
  Na  Na6  1  0.23378865  0.75858141  0.03900555  1
  Na  Na7  1  0.23378865  0.24141859  0.53900555  1
  Na  Na8  1  0.61592280  0.47449155  0.62320986  1
  Na  Na9  1  0.61592280  0.52550845  0.12320986  1
  Na  Na10  1  0.36500356  0.51058193  0.11734758  1
  Na  Na11  1  0.36500356  0.48941807  0.61734758  1
  Na  Na12  1  0.49078840  0.78285525  0.02142591  1
  Na  Na13  1  0.49078840  0.21714375  0.52142591  1
  Na  Na14  1  0.38088151  0.98155838  0.57582648  1
  Na  Na15  1  0.38088151  0.01844162  0.07582648  1
  Na  Na16  1  0.62412329  0.98009371  0.80850766  1
  Na  Na17  1  0.62412329  0.01990629  0.30850766  1
  Na  Na18  1  0.73378865  0.25858141  0.03900555  1
  Na  Na19  1  0.73378865  0.74141859  0.53900555  1
  Na  Na20  1  0.11592280  0.97449155  0.62320986  1
  Na  Na21  1  0.11592280  0.02550845  0.12320986  1
  Na  Na22  1  0.86500356  0.01058193  0.11734758  1
  Na  Na23  1  0.86500356  0.98941807  0.61734758  1
  Mo  Mo24  1  0.99856211  0.76076418  0.00367232  1
  Mo  Mo25  1  0.99856211  0.23923582  0.50367232  1
  Mo  Mo26  1  0.24962576  0.74491685  0.57816243  1
  Mo  Mo27  1  0.24962576  0.25508315  0.07816243  1
  Mo  Mo28  1  0.49856211  0.26076418  0.00367232  1
  Mo  Mo29  1  0.49856211  0.73923582  0.50367232  1
  Mo  Mo30  1  0.74962576  0.24491685  0.57816243  1
  Mo  Mo31  1  0.74962576  0.75508315  0.07816243  1
  N  N32  1  0.00729431  0.60625560  0.90865284  1
  N  N33  1  0.00729431  0.39374440  0.40865284  1
  N  N34  1  0.02839848  0.86858939  0.82373843  1
  N  N35  1  0.02839848  0.13141061  0.32373843  1
  N  N36  1  0.24272811  0.61053228  0.73833918  1
  N  N37  1  0.24272811  0.38946772  0.23833918  1
  N  N38  1  0.79333711  0.37329921  0.78004540  1
  N  N39  1  0.79333711  0.62670079  0.28004540  1
  N  N40  1  0.10577613  0.21826702  0.82618286  1
  N  N41  1  0.10577613  0.78173298  0.32618286  1
  N  N42  1  0.85171077  0.21008600  0.45908250  1
  N  N43  1  0.85171077  0.78991400  0.95908250  1
  N  N44  1  0.50729431  0.10625560  0.90865284  1
  N  N45  1  0.50729431  0.89374440  0.40865284  1
  N  N46  1  0.52839848  0.36858939  0.82373843  1
  N  N47  1  0.52839848  0.63141061  0.32373843  1
  N  N48  1  0.74272811  0.11053228  0.73833918  1
  N  N49  1  0.74272811  0.88946772  0.23833918  1
  N  N50  1  0.29333711  0.87329821  0.78004540  1
  N  N51  1  0.29333711  0.12670079  0.28004540  1
  N  N52  1  0.60577613  0.71826702  0.82618286  1
  N  N53  1  0.60577613  0.28173298  0.32618286  1
  N  N54  1  0.35171077  0.71008600  0.45908250  1
  N  N55  1  0.35171077  0.28991400  0.95908250  1
