# generated using pymatgen
data_MnCO3
_symmetry_space_group_name_H-M   'P 1'
_cell_length_a   5.62169209
_cell_length_b   4.94286773
_cell_length_c   4.94286742
_cell_angle_alpha   60.26118756
_cell_angle_beta   72.80355500
_cell_angle_gamma   72.80355679
_symmetry_Int_Tables_number   1
_chemical_formula_structural   MnCO3
_chemical_formula_sum   'Mn2 C2 O6'
_cell_volume   112.07515418
_cell_formula_units_Z   2
loop_
 _symmetry_equiv_pos_site_id
 _symmetry_equiv_pos_as_xyz
  1  'x, y, z'
loop_
 _atom_site_type_symbol
 _atom_site_label
 _atom_site_symmetry_multiplicity
 _atom_site_fract_x
 _atom_site_fract_y
 _atom_site_fract_z
 _atom_site_occupancy
  Mn  Mn0  1  0.00606445  0.92260941  0.01045283  1
  Mn  Mn1  1  0.50606445  0.51045283  0.42260941  1
  C  C2  1  0.12548901  0.21514233  0.32629273  1
  C  C3  1  0.62548901  0.82629273  0.71514233  1
  O  O4  1  0.68873373  0.04285173  0.74526963  1
  O  O5  1  0.49110431  0.62708214  0.94785564  1
  O  O6  1  0.69110850  0.81496904  0.44747451  1
  O  O7  1  0.18873373  0.24526963  0.54285173  1
  O  O8  1  0.99110431  0.44785565  0.12708214  1
  O  O9  1  0.19110850  0.94747451  0.31496905  1
