# generated using pymatgen
data_Li7V(O2F)2
_symmetry_space_group_name_H-M   'P 1'
_cell_length_a   5.60522621
_cell_length_b   5.94841839
_cell_length_c   5.69542962
_cell_angle_alpha   118.08280039
_cell_angle_beta   121.71545543
_cell_angle_gamma   60.39869557
_symmetry_Int_Tables_number   1
_chemical_formula_structural   Li7V(O2F)2
_chemical_formula_sum   'Li7 V1 O4 F2'
_cell_volume   134.61648890
_cell_formula_units_Z   1
loop_
 _symmetry_equiv_pos_site_id
 _symmetry_equiv_pos_as_xyz
  1  'x, y, z'
loop_
 _atom_site_type_symbol
 _atom_site_label
 _atom_site_symmetry_multiplicity
 _atom_site_fract_x
 _atom_site_fract_y
 _atom_site_fract_z
 _atom_site_occupancy
  Li  Li0  1  0.25092287  0.38166511  0.52098370  1
  Li  Li1  1  0.08214291  0.67646011  0.25026153  1
  Li  Li2  1  0.50403518  0.65213215  0.92643745  1
  Li  Li3  1  0.34928916  0.99410476  0.61953939  1
  Li  Li4  1  0.51819557  0.36222264  0.12296912  1
  Li  Li5  1  0.82817317  0.14989602  0.57607968  1
  Li  Li6  1  0.78067214  0.65392449  0.51818255  1
  V  V7  1  0.00998665  0.01897265  0.02526311  1
  O  O8  1  0.10075056  0.79485895  0.64589419  1
  O  O9  1  0.61441281  0.24512825  0.79788309  1
  O  O10  1  0.37569500  0.75738924  0.23784146  1
  O  O11  1  0.93568268  0.25093123  0.38961380  1
  F  F12  1  0.23588399  0.28275836  0.13753414  1
  F  F13  1  0.75675831  0.77153206  0.90511678  1
