# generated using pymatgen
data_Sr2Si5N8
_symmetry_space_group_name_H-M   'P 1'
_cell_length_a   5.74893342
_cell_length_b   6.88102693
_cell_length_c   9.40482010
_cell_angle_alpha   90.00000000
_cell_angle_beta   90.00000000
_cell_angle_gamma   90.00000000
_symmetry_Int_Tables_number   1
_chemical_formula_structural   Sr2Si5N8
_chemical_formula_sum   'Sr4 Si10 N16'
_cell_volume   372.04119365
_cell_formula_units_Z   2
loop_
 _symmetry_equiv_pos_site_id
 _symmetry_equiv_pos_as_xyz
  1  'x, y, z'
loop_
 _atom_site_type_symbol
 _atom_site_label
 _atom_site_symmetry_multiplicity
 _atom_site_fract_x
 _atom_site_fract_y
 _atom_site_fract_z
 _atom_site_occupancy
  N  N0  1  0.50000000  0.57498173  0.77180177  1
  N  N1  1  0.00000000  0.42501827  0.27180177  1
  N  N2  1  0.50000000  0.82577442  0.33841944  1
  N  N3  1  0.00000000  0.17422558  0.83841944  1
  N  N4  1  0.50000000  0.41367458  0.27327235  1
  N  N5  1  0.00000000  0.58632542  0.77327235  1
  N  N6  1  0.74941167  0.55616209  0.51097880  1
  N  N7  1  0.75058833  0.44383791  0.01097880  1
  N  N8  1  0.25058833  0.55616209  0.51097880  1
  N  N9  1  0.24941167  0.44383791  0.01097880  1
  N  N10  1  0.74780619  0.08647554  0.17178896  1
  N  N11  1  0.75219381  0.91352446  0.67178896  1
  N  N12  1  0.25219381  0.08647554  0.17178896  1
  N  N13  1  0.24780619  0.91352446  0.67178896  1
  N  N14  1  0.00000000  0.19029036  0.52192824  1
  N  N15  1  0.50000000  0.80970964  0.02192824  1
  Si  Si16  1  0.50000000  0.59820658  0.40189143  1
  Si  Si17  1  0.00000000  0.40179342  0.90189143  1
  Si  Si18  1  0.50000000  0.58020778  0.96112485  1
  Si  Si19  1  0.00000000  0.41979222  0.46112485  1
  Si  Si20  1  0.50000000  0.94510901  0.17753525  1
  Si  Si21  1  0.00000000  0.05489099  0.67753525  1
  Si  Si22  1  0.75174397  0.33231040  0.18289660  1
  Si  Si23  1  0.74825603  0.66768960  0.68289660  1
  Si  Si24  1  0.24825603  0.33231040  0.18289660  1
  Si  Si25  1  0.25174397  0.66768960  0.68289660  1
  Sr  Sr26  1  0.50000000  0.11588282  0.86827529  1
  Sr  Sr27  1  0.00000000  0.88411718  0.36827529  1
  Sr  Sr28  1  0.50000000  0.12654310  0.49977267  1
  Sr  Sr29  1  0.00000000  0.87345690  0.99977267  1
