# generated using pymatgen
data_KCuO
_symmetry_space_group_name_H-M   'P 1'
_cell_length_a   5.55266542
_cell_length_b   7.18001885
_cell_length_c   7.18001885
_cell_angle_alpha   81.40103747
_cell_angle_beta   67.25224366
_cell_angle_gamma   67.25224362
_symmetry_Int_Tables_number   1
_chemical_formula_structural   KCuO
_chemical_formula_sum   'K4 Cu4 O4'
_cell_volume   243.45465709
_cell_formula_units_Z   4
loop_
 _symmetry_equiv_pos_site_id
 _symmetry_equiv_pos_as_xyz
  1  'x, y, z'
loop_
 _atom_site_type_symbol
 _atom_site_label
 _atom_site_symmetry_multiplicity
 _atom_site_fract_x
 _atom_site_fract_y
 _atom_site_fract_z
 _atom_site_occupancy
  O  O0  1  0.47145664  0.77848358  0.77848358  1
  O  O1  1  0.75005978  0.22151642  0.77848358  1
  O  O2  1  0.75005978  0.77848358  0.22151642  1
  O  O3  1  0.02842380  0.22151642  0.22151642  1
  K  K4  1  0.25001935  0.19028122  0.80971878  1
  K  K5  1  0.25001935  0.80971878  0.19028122  1
  K  K6  1  0.94026188  0.80971878  0.80971878  1
  K  K7  1  0.55969943  0.19028122  0.19028122  1
  Cu  Cu8  1  0.88898610  0.50000000  0.22202779  1
  Cu  Cu9  1  0.61101390  0.77797221  0.50000000  1
  Cu  Cu10  1  0.61101390  0.50000000  0.77797221  1
  Cu  Cu11  1  0.88898610  0.22202779  0.50000000  1
