# generated using pymatgen
data_Te2SO7
_symmetry_space_group_name_H-M   'P 1'
_cell_length_a   5.00024667
_cell_length_b   6.94551642
_cell_length_c   8.79615391
_cell_angle_alpha   90.00000000
_cell_angle_beta   90.00000000
_cell_angle_gamma   90.00000000
_symmetry_Int_Tables_number   1
_chemical_formula_structural   Te2SO7
_chemical_formula_sum   'Te4 S2 O14'
_cell_volume   305.48422709
_cell_formula_units_Z   2
loop_
 _symmetry_equiv_pos_site_id
 _symmetry_equiv_pos_as_xyz
  1  'x, y, z'
loop_
 _atom_site_type_symbol
 _atom_site_label
 _atom_site_symmetry_multiplicity
 _atom_site_fract_x
 _atom_site_fract_y
 _atom_site_fract_z
 _atom_site_occupancy
  Te  Te0  1  0.17333463  0.82086538  0.19700653  1
  Te  Te1  1  0.67333463  0.17913462  0.30299347  1
  Te  Te2  1  0.17333463  0.82086538  0.80299347  1
  Te  Te3  1  0.67333463  0.17913462  0.69700653  1
  S  S4  1  0.69526764  0.51070849  0.00000000  1
  S  S5  1  0.19526764  0.48929151  0.50000000  1
  O  O6  1  0.32455339  0.05824239  0.28884609  1
  O  O7  1  0.27314291  0.93277111  0.00000000  1
  O  O8  1  0.32455339  0.05824239  0.71115391  1
  O  O9  1  0.54646181  0.55758784  0.85957933  1
  O  O10  1  0.82455339  0.94175761  0.21115391  1
  O  O11  1  0.54646181  0.55758784  0.14042067  1
  O  O12  1  0.82455339  0.94175761  0.78884609  1
  O  O13  1  0.04646181  0.44241216  0.35957933  1
  O  O14  1  0.04646181  0.44241216  0.64042067  1
  O  O15  1  0.77314291  0.06722889  0.50000000  1
  O  O16  1  0.27456434  0.69494591  0.50000000  1
  O  O17  1  0.95332543  0.63528137  0.00000000  1
  O  O18  1  0.77456434  0.30505409  0.00000000  1
  O  O19  1  0.45332543  0.36471863  0.50000000  1
