# generated using pymatgen
data_H2O
_symmetry_space_group_name_H-M   'P 1'
_cell_length_a   3.96558566
_cell_length_b   8.19203228
_cell_length_c   8.26164533
_cell_angle_alpha   89.06434785
_cell_angle_beta   89.96332456
_cell_angle_gamma   89.90847040
_symmetry_Int_Tables_number   1
_chemical_formula_structural   H2O
_chemical_formula_sum   'H24 O12'
_cell_volume   268.35333093
_cell_formula_units_Z   12
loop_
 _symmetry_equiv_pos_site_id
 _symmetry_equiv_pos_as_xyz
  1  'x, y, z'
loop_
 _atom_site_type_symbol
 _atom_site_label
 _atom_site_symmetry_multiplicity
 _atom_site_fract_x
 _atom_site_fract_y
 _atom_site_fract_z
 _atom_site_occupancy
  H  H0  1  0.39221911  0.94934350  0.58917305  1
  H  H1  1  0.31113866  0.71991131  0.77096344  1
  H  H2  1  0.94412670  0.28029324  0.27263665  1
  H  H3  1  0.03712872  0.72319886  0.28178725  1
  H  H4  1  0.01693271  0.42643648  0.15390475  1
  H  H5  1  0.98350493  0.15403707  0.58023636  1
  H  H6  1  0.89045663  0.55107464  0.90801386  1
  H  H7  1  0.23345285  0.57759227  0.65258788  1
  H  H8  1  0.48150041  0.34790056  0.91603549  1
  H  H9  1  0.73350482  0.92339599  0.84340677  1
  H  H10  1  0.14189849  0.09493188  0.95728196  1
  H  H11  1  0.35915066  0.45052129  0.40780450  1
  H  H12  1  0.81142356  0.78042302  0.72555268  1
  H  H13  1  0.53720081  0.77867045  0.21364037  1
  H  H14  1  0.64297035  0.40734217  0.53819278  1
  H  H15  1  0.76065515  0.65700774  0.41178218  1
  H  H16  1  0.44454686  0.22084750  0.22514780  1
  H  H17  1  0.56170158  0.22747584  0.77692821  1
  H  H18  1  0.85867541  0.05158371  0.08798074  1
  H  H19  1  0.10424924  0.90610337  0.46210386  1
  H  H20  1  0.51948053  0.07446891  0.34344838  1
  H  H21  1  0.26052287  0.84465751  0.08351104  1
  H  H22  1  0.60210670  0.59505537  0.03487260  1
  H  H23  1  0.06208946  0.27502525  0.71886414  1
  O  O24  1  0.62272839  0.13870690  0.25253267  1
  O  O25  1  0.38214282  0.25383158  0.85766600  1
  O  O26  1  0.88330947  0.24852374  0.63794821  1
  O  O27  1  0.12132998  0.36265141  0.24487836  1
  O  O28  1  0.35677786  0.74486824  0.13681452  1
  O  O29  1  0.63115475  0.86071547  0.75335172  1
  O  O30  1  0.99918391  0.00434490  0.00044110  1
  O  O31  1  0.13116332  0.63984012  0.74311363  1
  O  O32  1  0.49981310  0.49790162  0.49503300  1
  O  O33  1  0.24995839  0.99643421  0.50090315  1
  O  O34  1  0.74775981  0.50435401  0.99631286  1
  O  O35  1  0.85644097  0.75692986  0.35864801  1
