# generated using pymatgen
data_CaCrF6
_symmetry_space_group_name_H-M   'P 1'
_cell_length_a   5.76594086
_cell_length_b   5.76594142
_cell_length_c   5.76594154
_cell_angle_alpha   57.45611183
_cell_angle_beta   57.45610829
_cell_angle_gamma   57.45610839
_symmetry_Int_Tables_number   1
_chemical_formula_structural   CaCrF6
_chemical_formula_sum   'Ca1 Cr1 F6'
_cell_volume   127.61628840
_cell_formula_units_Z   1
loop_
 _symmetry_equiv_pos_site_id
 _symmetry_equiv_pos_as_xyz
  1  'x, y, z'
loop_
 _atom_site_type_symbol
 _atom_site_label
 _atom_site_symmetry_multiplicity
 _atom_site_fract_x
 _atom_site_fract_y
 _atom_site_fract_z
 _atom_site_occupancy
  Ca  Ca0  1  0.50000000  0.50000000  0.50000000  1
  Cr  Cr1  1  0.00000000  0.00000000  0.00000000  1
  F  F2  1  0.31905338  0.12615194  0.77988038  1
  F  F3  1  0.12615194  0.77988038  0.31905338  1
  F  F4  1  0.22011962  0.68094662  0.87384806  1
  F  F5  1  0.87384806  0.22011962  0.68094662  1
  F  F6  1  0.68094662  0.87384806  0.22011962  1
  F  F7  1  0.77988038  0.31905338  0.12615194  1
