# generated using pymatgen
data_SrHfO3
_symmetry_space_group_name_H-M   'P 1'
_cell_length_a   5.82710067
_cell_length_b   5.81033520
_cell_length_c   5.81033520
_cell_angle_alpha   60.29895716
_cell_angle_beta   59.90450391
_cell_angle_gamma   59.90450383
_symmetry_Int_Tables_number   1
_chemical_formula_structural   SrHfO3
_chemical_formula_sum   'Sr2 Hf2 O6'
_cell_volume   139.21315940
_cell_formula_units_Z   2
loop_
 _symmetry_equiv_pos_site_id
 _symmetry_equiv_pos_as_xyz
  1  'x, y, z'
loop_
 _atom_site_type_symbol
 _atom_site_label
 _atom_site_symmetry_multiplicity
 _atom_site_fract_x
 _atom_site_fract_y
 _atom_site_fract_z
 _atom_site_occupancy
  O  O0  1  0.70946220  0.29053780  0.79053780  1
  O  O1  1  0.79053780  0.70946220  0.20946220  1
  O  O2  1  0.29053780  0.70946220  0.20946220  1
  O  O3  1  0.20946220  0.29053780  0.79053780  1
  O  O4  1  0.25000000  0.82485186  0.67514814  1
  O  O5  1  0.75000000  0.17514814  0.32485186  1
  Sr  Sr6  1  0.25000000  0.25883834  0.24116166  1
  Sr  Sr7  1  0.75000000  0.74116166  0.75883834  1
  Hf  Hf8  1  0.00000000  0.00000000  0.00000000  1
  Hf  Hf9  1  0.50000000  0.50000000  0.50000000  1
