# generated using pymatgen
data_LiVF6
_symmetry_space_group_name_H-M   'P 1'
_cell_length_a   5.68537954
_cell_length_b   5.68560590
_cell_length_c   4.84209403
_cell_angle_alpha   90.23157874
_cell_angle_beta   90.23108022
_cell_angle_gamma   60.47009512
_symmetry_Int_Tables_number   1
_chemical_formula_structural   LiVF6
_chemical_formula_sum   'Li1 V1 F6'
_cell_volume   136.18621313
_cell_formula_units_Z   1
loop_
 _symmetry_equiv_pos_site_id
 _symmetry_equiv_pos_as_xyz
  1  'x, y, z'
loop_
 _atom_site_type_symbol
 _atom_site_label
 _atom_site_symmetry_multiplicity
 _atom_site_fract_x
 _atom_site_fract_y
 _atom_site_fract_z
 _atom_site_occupancy
  Li  Li0  1  0.66464519  0.66458867  0.70010888  1
  V  V1  1  0.99995729  0.99990070  0.01450322  1
  F  F2  1  0.15060252  0.15060248  0.21743041  1
  F  F3  1  0.14853509  0.69952548  0.21447965  1
  F  F4  1  0.29936890  0.85128817  0.78355200  1
  F  F5  1  0.69948974  0.14853658  0.21450286  1
  F  F6  1  0.85129314  0.29933911  0.78354250  1
  F  F7  1  0.84936213  0.84935182  0.78062248  1
