# generated using pymatgen
data_Hg3Cl4O
_symmetry_space_group_name_H-M   'P 1'
_cell_length_a   9.53725543
_cell_length_b   9.53725543
_cell_length_c   9.53725543
_cell_angle_alpha   90.00000000
_cell_angle_beta   90.00000000
_cell_angle_gamma   90.00000000
_symmetry_Int_Tables_number   1
_chemical_formula_structural   Hg3Cl4O
_chemical_formula_sum   'Hg12 Cl16 O4'
_cell_volume   867.50151644
_cell_formula_units_Z   4
loop_
 _symmetry_equiv_pos_site_id
 _symmetry_equiv_pos_as_xyz
  1  'x, y, z'
loop_
 _atom_site_type_symbol
 _atom_site_label
 _atom_site_symmetry_multiplicity
 _atom_site_fract_x
 _atom_site_fract_y
 _atom_site_fract_z
 _atom_site_occupancy
  O  O0  1  0.82146378  0.82146378  0.82146378  1
  O  O1  1  0.17853622  0.32146378  0.67853622  1
  O  O2  1  0.32146378  0.67853622  0.17853622  1
  O  O3  1  0.67853622  0.17853622  0.32146378  1
  Cl  Cl4  1  0.19474393  0.97033268  0.83995372  1
  Cl  Cl5  1  0.69474393  0.52966732  0.16004628  1
  Cl  Cl6  1  0.80525607  0.47033268  0.66004628  1
  Cl  Cl7  1  0.52966732  0.16004628  0.69474393  1
  Cl  Cl8  1  0.66004628  0.80525607  0.47033268  1
  Cl  Cl9  1  0.16004628  0.69474393  0.52966732  1
  Cl  Cl10  1  0.97033268  0.83995372  0.19474393  1
  Cl  Cl11  1  0.83995372  0.19474393  0.97033268  1
  Cl  Cl12  1  0.57046323  0.92953677  0.07046323  1
  Cl  Cl13  1  0.42953677  0.42953677  0.42953677  1
  Cl  Cl14  1  0.07046323  0.57046323  0.92953677  1
  Cl  Cl15  1  0.92953677  0.07046323  0.57046323  1
  Cl  Cl16  1  0.30525607  0.02966732  0.33995372  1
  Cl  Cl17  1  0.33995372  0.30525607  0.02966732  1
  Cl  Cl18  1  0.02966732  0.33995372  0.30525607  1
  Cl  Cl19  1  0.47033268  0.66004628  0.80525607  1
  Hg  Hg20  1  0.26941328  0.81910702  0.01758897  1
  Hg  Hg21  1  0.76941328  0.68089298  0.98241103  1
  Hg  Hg22  1  0.73058672  0.31910702  0.48241103  1
  Hg  Hg23  1  0.68089298  0.98241103  0.76941328  1
  Hg  Hg24  1  0.48241103  0.73058672  0.31910702  1
  Hg  Hg25  1  0.98241103  0.76941328  0.68089298  1
  Hg  Hg26  1  0.81910702  0.01758897  0.26941328  1
  Hg  Hg27  1  0.01758897  0.26941328  0.81910702  1
  Hg  Hg28  1  0.31910702  0.48241103  0.73058672  1
  Hg  Hg29  1  0.18089298  0.51758897  0.23058672  1
  Hg  Hg30  1  0.51758897  0.23058672  0.18089298  1
  Hg  Hg31  1  0.23058672  0.18089298  0.51758897  1
