# generated using pymatgen
data_Cd(HO)2
_symmetry_space_group_name_H-M   'P 1'
_cell_length_a   3.27170060
_cell_length_b   5.83046739
_cell_length_c   6.44048217
_cell_angle_alpha   113.62049699
_cell_angle_beta   99.28747457
_cell_angle_gamma   101.80561092
_symmetry_Int_Tables_number   1
_chemical_formula_structural   Cd(HO)2
_chemical_formula_sum   'Cd2 H4 O4'
_cell_volume   106.04763195
_cell_formula_units_Z   2
loop_
 _symmetry_equiv_pos_site_id
 _symmetry_equiv_pos_as_xyz
  1  'x, y, z'
loop_
 _atom_site_type_symbol
 _atom_site_label
 _atom_site_symmetry_multiplicity
 _atom_site_fract_x
 _atom_site_fract_y
 _atom_site_fract_z
 _atom_site_occupancy
  H  H0  1  0.17977182  0.69578400  0.36159749  1
  H  H1  1  0.81817433  0.33418651  0.63840251  1
  H  H2  1  0.21335410  0.61566032  0.00000000  1
  H  H3  1  0.76870725  0.42224507  1.00000000  1
  O  O4  1  0.73895248  0.15798308  0.50674005  1
  O  O5  1  0.23221243  0.65124303  0.49325995  1
  O  O6  1  0.91082081  0.60374895  0.00000000  1
  O  O7  1  0.56152998  0.16303677  0.00000000  1
  Cd  Cd8  1  0.90173716  0.93355490  0.72399752  1
  Cd  Cd9  1  0.17773964  0.20955738  0.27600248  1
