# generated using pymatgen
data_Al7Te10
_symmetry_space_group_name_H-M   'P 1'
_cell_length_a   10.49046648
_cell_length_b   10.49046649
_cell_length_c   10.49046648
_cell_angle_alpha   89.85394702
_cell_angle_beta   89.85394701
_cell_angle_gamma   89.85394698
_symmetry_Int_Tables_number   1
_chemical_formula_structural   Al7Te10
_chemical_formula_sum   'Al14 Te20'
_cell_volume   1154.46341786
_cell_formula_units_Z   2
loop_
 _symmetry_equiv_pos_site_id
 _symmetry_equiv_pos_as_xyz
  1  'x, y, z'
loop_
 _atom_site_type_symbol
 _atom_site_label
 _atom_site_symmetry_multiplicity
 _atom_site_fract_x
 _atom_site_fract_y
 _atom_site_fract_z
 _atom_site_occupancy
  Al  Al0  1  0.88968647  0.84589051  0.57908248  1
  Al  Al1  1  0.84589051  0.57908248  0.88968647  1
  Al  Al2  1  0.57908248  0.88968647  0.84589051  1
  Al  Al3  1  0.42091752  0.15410949  0.11031353  1
  Al  Al4  1  0.15410949  0.11031353  0.42091752  1
  Al  Al5  1  0.11031353  0.42091752  0.15410949  1
  Al  Al6  1  0.16324181  0.74184353  0.34681588  1
  Al  Al7  1  0.74184353  0.34681588  0.16324181  1
  Al  Al8  1  0.34681588  0.16324181  0.74184353  1
  Al  Al9  1  0.65318412  0.25815647  0.83675819  1
  Al  Al10  1  0.25815647  0.83675819  0.65318412  1
  Al  Al11  1  0.83675819  0.65318412  0.25815647  1
  Al  Al12  1  0.57184172  0.57184172  0.57184172  1
  Al  Al13  1  0.42815828  0.42815828  0.42815828  1
  Te  Te14  1  0.92295424  0.42206353  0.32882546  1
  Te  Te15  1  0.32882546  0.92295424  0.42206353  1
  Te  Te16  1  0.42206353  0.32882546  0.92295424  1
  Te  Te17  1  0.57793647  0.07704576  0.67117454  1
  Te  Te18  1  0.67117454  0.57793647  0.07704576  1
  Te  Te19  1  0.07704576  0.67117454  0.57793647  1
  Te  Te20  1  0.69220415  0.75818815  0.44030249  1
  Te  Te21  1  0.75818815  0.44030249  0.69220415  1
  Te  Te22  1  0.44030249  0.69220415  0.75818815  1
  Te  Te23  1  0.55969751  0.24181185  0.30779585  1
  Te  Te24  1  0.24181185  0.30779585  0.55969751  1
  Te  Te25  1  0.30779585  0.55969751  0.24181185  1
  Te  Te26  1  0.07935006  0.50000000  0.92064994  1
  Te  Te27  1  0.50000000  0.92064994  0.07935006  1
  Te  Te28  1  0.92064994  0.07935006  0.50000000  1
  Te  Te29  1  0.18073213  0.00000000  0.81926787  1
  Te  Te30  1  0.00000000  0.81926787  0.18073213  1
  Te  Te31  1  0.81926787  0.18073213  0.00000000  1
  Te  Te32  1  0.83041288  0.83041288  0.83041288  1
  Te  Te33  1  0.16958712  0.16958712  0.16958712  1
