# generated using pymatgen
data_KHCN2
_symmetry_space_group_name_H-M   'P 1'
_cell_length_a   7.19562145
_cell_length_b   9.13555435
_cell_length_c   9.17149583
_cell_angle_alpha   90.00000000
_cell_angle_beta   90.00000000
_cell_angle_gamma   90.00000000
_symmetry_Int_Tables_number   1
_chemical_formula_structural   KHCN2
_chemical_formula_sum   'K8 H8 C8 N16'
_cell_volume   602.89736586
_cell_formula_units_Z   8
loop_
 _symmetry_equiv_pos_site_id
 _symmetry_equiv_pos_as_xyz
  1  'x, y, z'
loop_
 _atom_site_type_symbol
 _atom_site_label
 _atom_site_symmetry_multiplicity
 _atom_site_fract_x
 _atom_site_fract_y
 _atom_site_fract_z
 _atom_site_occupancy
  H  H0  1  0.32155609  0.80541179  0.50687621  1
  H  H1  1  0.82155609  0.19458821  0.99312379  1
  H  H2  1  0.17844391  0.30541179  0.49312379  1
  H  H3  1  0.67844391  0.69458821  0.00687621  1
  H  H4  1  0.07604482  0.71843094  0.92761902  1
  H  H5  1  0.57604482  0.28156906  0.57238098  1
  H  H6  1  0.42395518  0.21843094  0.07238098  1
  H  H7  1  0.92395518  0.78156906  0.42761902  1
  C  C8  1  0.02493013  0.80628921  0.23099228  1
  C  C9  1  0.52493013  0.19371079  0.26900772  1
  C  C10  1  0.47506987  0.30628921  0.76900772  1
  C  C11  1  0.97506987  0.69371079  0.73099228  1
  C  C12  1  0.77261595  0.50055474  0.05859694  1
  C  C13  1  0.27261595  0.49944526  0.44140306  1
  C  C14  1  0.72738405  0.00055474  0.94140306  1
  C  C15  1  0.22738405  0.99944526  0.55859694  1
  N  N16  1  0.89205219  0.81603319  0.32342060  1
  N  N17  1  0.39205219  0.18396681  0.17657940  1
  N  N18  1  0.60794781  0.31603319  0.67657940  1
  N  N19  1  0.10794781  0.68396681  0.82342060  1
  N  N20  1  0.13940530  0.80477772  0.13543161  1
  N  N21  1  0.63940530  0.19522228  0.36456839  1
  N  N22  1  0.36059470  0.30477772  0.86456839  1
  N  N23  1  0.86059470  0.69522228  0.63543161  1
  N  N24  1  0.63951081  0.59221395  0.04307213  1
  N  N25  1  0.13951081  0.40778605  0.45692787  1
  N  N26  1  0.86048919  0.09221395  0.95692787  1
  N  N27  1  0.36048919  0.90778605  0.54307213  1
  N  N28  1  0.88566820  0.40576936  0.07978463  1
  N  N29  1  0.38566820  0.59423064  0.42021537  1
  N  N30  1  0.61433180  0.90576936  0.92021537  1
  N  N31  1  0.11433180  0.09423064  0.57978463  1
  K  K32  1  0.99067949  0.35388767  0.76105719  1
  K  K33  1  0.49067949  0.64611233  0.73894281  1
  K  K34  1  0.50932051  0.85388767  0.23894281  1
  K  K35  1  0.00932051  0.14611233  0.26105719  1
  K  K36  1  0.76535522  0.50098008  0.39483198  1
  K  K37  1  0.26535522  0.49901992  0.10516802  1
  K  K38  1  0.73464478  0.00098008  0.60516802  1
  K  K39  1  0.23464478  0.99901992  0.89483198  1
