# generated using pymatgen
data_NaH2C2N3O
_symmetry_space_group_name_H-M   'P 1'
_cell_length_a   10.30280090
_cell_length_b   10.30280024
_cell_length_c   6.59844561
_cell_angle_alpha   90.00000000
_cell_angle_beta   90.00000000
_cell_angle_gamma   119.99999890
_symmetry_Int_Tables_number   1
_chemical_formula_structural   NaH2C2N3O
_chemical_formula_sum   'Na6 H12 C12 N18 O6'
_cell_volume   606.57270614
_cell_formula_units_Z   6
loop_
 _symmetry_equiv_pos_site_id
 _symmetry_equiv_pos_as_xyz
  1  'x, y, z'
loop_
 _atom_site_type_symbol
 _atom_site_label
 _atom_site_symmetry_multiplicity
 _atom_site_fract_x
 _atom_site_fract_y
 _atom_site_fract_z
 _atom_site_occupancy
  Na  Na0  1  0.00000000  0.59330024  0.50000000  1
  Na  Na1  1  0.00000000  0.59330024  0.00000000  1
  Na  Na2  1  0.40669976  0.40669976  0.00000000  1
  Na  Na3  1  0.40669976  0.40669976  0.50000000  1
  Na  Na4  1  0.59330024  1.00000000  0.00000000  1
  Na  Na5  1  0.59330024  1.00000000  0.50000000  1
  H  H6  1  0.17012233  0.81313171  0.75000000  1
  H  H7  1  0.30500484  0.78169377  0.75000000  1
  H  H8  1  0.21830623  0.52331007  0.75000000  1
  H  H9  1  0.18686829  0.35699061  0.75000000  1
  H  H10  1  0.47668993  0.69499516  0.75000000  1
  H  H11  1  0.64300939  0.82987767  0.75000000  1
  H  H12  1  0.35699061  0.18686829  0.25000000  1
  H  H13  1  0.52331007  0.21830623  0.25000000  1
  H  H14  1  0.69499516  0.47668993  0.25000000  1
  H  H15  1  0.82987767  0.64300939  0.25000000  1
  H  H16  1  0.78169377  0.30500484  0.25000000  1
  H  H17  1  0.81313171  0.17012233  0.25000000  1
  C  C18  1  0.06206462  0.91438655  0.25000000  1
  C  C19  1  0.26350389  0.87706735  0.25000000  1
  C  C20  1  0.12293265  0.38643754  0.25000000  1
  C  C21  1  0.08561345  0.14767807  0.25000000  1
  C  C22  1  0.14767807  0.08561345  0.75000000  1
  C  C23  1  0.61356246  0.73649611  0.25000000  1
  C  C24  1  0.38643754  0.12293265  0.75000000  1
  C  C25  1  0.85232193  0.93793538  0.25000000  1
  C  C26  1  0.73649611  0.61356246  0.75000000  1
  C  C27  1  0.93793538  0.85232193  0.75000000  1
  C  C28  1  0.87706735  0.26350389  0.75000000  1
  C  C29  1  0.91438655  0.06206462  0.75000000  1
  N  N30  1  0.08946063  0.93528737  0.75000000  1
  N  N31  1  0.11900223  0.81975805  0.25000000  1
  N  N32  1  0.08143625  0.47494735  0.25000000  1
  N  N33  1  0.39351110  0.91856375  0.25000000  1
  N  N34  1  0.06471263  0.15417326  0.75000000  1
  N  N35  1  0.18024195  0.29924318  0.25000000  1
  N  N36  1  0.15417326  0.06471263  0.25000000  1
  N  N37  1  0.29924318  0.18024195  0.75000000  1
  N  N38  1  0.52505265  0.60648890  0.25000000  1
  N  N39  1  0.70075682  0.88099777  0.25000000  1
  N  N40  1  0.60648890  0.52505265  0.75000000  1
  N  N41  1  0.84582674  0.91053937  0.75000000  1
  N  N42  1  0.47494735  0.08143625  0.75000000  1
  N  N43  1  0.91053937  0.84582674  0.25000000  1
  N  N44  1  0.88099777  0.70075682  0.75000000  1
  N  N45  1  0.91856375  0.39351110  0.75000000  1
  N  N46  1  0.81975805  0.11900223  0.75000000  1
  N  N47  1  0.93528737  0.08946063  0.25000000  1
  O  O48  1  0.19561203  0.73031234  0.75000000  1
  O  O49  1  0.26968766  0.46529969  0.75000000  1
  O  O50  1  0.53470031  0.80438797  0.75000000  1
  O  O51  1  0.46529969  0.26968766  0.25000000  1
  O  O52  1  0.80438797  0.53470031  0.25000000  1
  O  O53  1  0.73031234  0.19561203  0.25000000  1
