# generated using pymatgen
data_Te(HO)6
_symmetry_space_group_name_H-M   'P 1'
_cell_length_a   5.89562983
_cell_length_b   6.01539277
_cell_length_c   5.45482289
_cell_angle_alpha   62.30091344
_cell_angle_beta   60.45102056
_cell_angle_gamma   55.31336250
_symmetry_Int_Tables_number   1
_chemical_formula_structural   Te(HO)6
_chemical_formula_sum   'Te1 H6 O6'
_cell_volume   133.71671259
_cell_formula_units_Z   1
loop_
 _symmetry_equiv_pos_site_id
 _symmetry_equiv_pos_as_xyz
  1  'x, y, z'
loop_
 _atom_site_type_symbol
 _atom_site_label
 _atom_site_symmetry_multiplicity
 _atom_site_fract_x
 _atom_site_fract_y
 _atom_site_fract_z
 _atom_site_occupancy
  Te  Te0  1  -0.00359721  0.00422201  0.00707942  1
  H  H1  1  0.21698082  0.77678609  0.60694713  1
  H  H2  1  0.32372329  0.21859460  0.64546917  1
  H  H3  1  0.40700749  0.61931847  0.20724400  1
  H  H4  1  0.77689686  0.24947454  0.39204518  1
  H  H5  1  0.63820974  0.82712631  0.36977376  1
  H  H6  1  0.60735435  0.40016445  0.77986007  1
  O  O7  1  0.30214289  0.76911658  0.73338437  1
  O  O8  1  0.18760891  0.24212787  0.84140964  1
  O  O9  1  0.21622929  0.76754137  0.28580321  1
  O  O10  1  0.69501284  0.24130487  0.27648348  1
  O  O11  1  0.79168024  0.77629790  0.18839375  1
  O  O12  1  0.78784950  0.23563894  0.71900780  1
