# generated using pymatgen
data_Ca2Ge
_symmetry_space_group_name_H-M   'P 1'
_cell_length_a   4.85545189
_cell_length_b   7.67813806
_cell_length_c   9.10063072
_cell_angle_alpha   90.00000000
_cell_angle_beta   90.00000000
_cell_angle_gamma   90.00000000
_symmetry_Int_Tables_number   1
_chemical_formula_structural   Ca2Ge
_chemical_formula_sum   'Ca8 Ge4'
_cell_volume   339.27906636
_cell_formula_units_Z   4
loop_
 _symmetry_equiv_pos_site_id
 _symmetry_equiv_pos_as_xyz
  1  'x, y, z'
loop_
 _atom_site_type_symbol
 _atom_site_label
 _atom_site_symmetry_multiplicity
 _atom_site_fract_x
 _atom_site_fract_y
 _atom_site_fract_z
 _atom_site_occupancy
  Ca  Ca0  1  0.75000000  0.34654435  0.92588531  1
  Ca  Ca1  1  0.25000000  0.65345565  0.07411469  1
  Ca  Ca2  1  0.75000000  0.84654435  0.57411469  1
  Ca  Ca3  1  0.25000000  0.15345565  0.42588531  1
  Ca  Ca4  1  0.75000000  0.48017084  0.32279760  1
  Ca  Ca5  1  0.25000000  0.51982916  0.67720240  1
  Ca  Ca6  1  0.75000000  0.98017084  0.17720240  1
  Ca  Ca7  1  0.25000000  0.01982916  0.82279760  1
  Ge  Ge8  1  0.75000000  0.74766686  0.89444164  1
  Ge  Ge9  1  0.25000000  0.25233314  0.10555836  1
  Ge  Ge10  1  0.75000000  0.24766686  0.60555836  1
  Ge  Ge11  1  0.25000000  0.75233314  0.39444164  1
