# generated using pymatgen
data_FeSeBr7
_symmetry_space_group_name_H-M   'P 1'
_cell_length_a   6.75377056
_cell_length_b   6.86173001
_cell_length_c   14.73510965
_cell_angle_alpha   101.62096088
_cell_angle_beta   90.00000000
_cell_angle_gamma   90.00000000
_symmetry_Int_Tables_number   1
_chemical_formula_structural   FeSeBr7
_chemical_formula_sum   'Fe2 Se2 Br14'
_cell_volume   668.86498248
_cell_formula_units_Z   2
loop_
 _symmetry_equiv_pos_site_id
 _symmetry_equiv_pos_as_xyz
  1  'x, y, z'
loop_
 _atom_site_type_symbol
 _atom_site_label
 _atom_site_symmetry_multiplicity
 _atom_site_fract_x
 _atom_site_fract_y
 _atom_site_fract_z
 _atom_site_occupancy
  Fe  Fe0  1  0.50149510  0.55359717  0.14018460  1
  Fe  Fe1  1  0.49850490  0.55359717  0.64018460  1
  Se  Se2  1  0.91504887  0.84663449  0.30359183  1
  Se  Se3  1  0.08495113  0.84663449  0.80359183  1
  Br  Br4  1  0.15488408  0.52779718  0.13327890  1
  Br  Br5  1  0.87458906  0.72177461  0.90740922  1
  Br  Br6  1  0.30917078  0.04151077  0.91016806  1
  Br  Br7  1  0.69082922  0.04151077  0.41016806  1
  Br  Br8  1  0.38844054  0.88065708  0.64113997  1
  Br  Br9  1  0.37684924  0.48375770  0.78106109  1
  Br  Br10  1  0.61155946  0.88065708  0.14113997  1
  Br  Br11  1  0.89126649  0.10594861  0.76338800  1
  Br  Br12  1  0.64267939  0.33502238  0.01257831  1
  Br  Br13  1  0.62315076  0.48375770  0.28106109  1
  Br  Br14  1  0.35732061  0.33502238  0.51257831  1
  Br  Br15  1  0.10873351  0.10594861  0.26338800  1
  Br  Br16  1  0.12541094  0.72177461  0.40740922  1
  Br  Br17  1  0.84511592  0.52779718  0.63327890  1
