# generated using pymatgen
data_Sr2CaWO6
_symmetry_space_group_name_H-M   'P 1'
_cell_length_a   5.83867995
_cell_length_b   6.10664375
_cell_length_c   8.36580941
_cell_angle_alpha   90.00000000
_cell_angle_beta   90.00000000
_cell_angle_gamma   90.00000000
_symmetry_Int_Tables_number   1
_chemical_formula_structural   Sr2CaWO6
_chemical_formula_sum   'Sr4 Ca2 W2 O12'
_cell_volume   298.28074623
_cell_formula_units_Z   2
loop_
 _symmetry_equiv_pos_site_id
 _symmetry_equiv_pos_as_xyz
  1  'x, y, z'
loop_
 _atom_site_type_symbol
 _atom_site_label
 _atom_site_symmetry_multiplicity
 _atom_site_fract_x
 _atom_site_fract_y
 _atom_site_fract_z
 _atom_site_occupancy
  O  O0  1  0.50000000  0.51305629  0.73262815  1
  O  O1  1  0.50000000  0.51305629  0.26737185  1
  O  O2  1  0.00000000  0.94888382  0.76737205  1
  O  O3  1  0.00000000  0.94888382  0.23262795  1
  O  O4  1  0.73298507  0.73296812  0.50000000  1
  O  O5  1  0.26701493  0.73296812  0.50000000  1
  O  O6  1  0.74460108  0.28617582  0.50000000  1
  O  O7  1  0.25539892  0.28617582  0.50000000  1
  O  O8  1  0.24460373  0.17581589  0.00000000  1
  O  O9  1  0.75539627  0.17581589  0.00000000  1
  O  O10  1  0.76700181  0.72904144  0.00000000  1
  O  O11  1  0.23299819  0.72904144  0.00000000  1
  Ca  Ca12  1  0.00000000  0.00640380  0.50000000  1
  Ca  Ca13  1  0.50000000  0.45560871  0.00000000  1
  Sr  Sr14  1  0.50000000  0.93526731  0.76762718  1
  Sr  Sr15  1  0.00000000  0.52679908  0.26762380  1
  Sr  Sr16  1  0.50000000  0.93526731  0.23237282  1
  Sr  Sr17  1  0.00000000  0.52679908  0.73237620  1
  W  W18  1  0.50000000  0.49604090  0.50000000  1
  W  W19  1  0.00000000  0.96593105  0.00000000  1
