# generated using pymatgen
data_Li2MnSiO4
_symmetry_space_group_name_H-M   'P 1'
_cell_length_a   11.10720073
_cell_length_b   5.09774692
_cell_length_c   6.38335967
_cell_angle_alpha   90.00001808
_cell_angle_beta   89.99943951
_cell_angle_gamma   90.00036554
_symmetry_Int_Tables_number   1
_chemical_formula_structural   Li2MnSiO4
_chemical_formula_sum   'Li8 Mn4 Si4 O16'
_cell_volume   361.43666543
_cell_formula_units_Z   4
loop_
 _symmetry_equiv_pos_site_id
 _symmetry_equiv_pos_as_xyz
  1  'x, y, z'
loop_
 _atom_site_type_symbol
 _atom_site_label
 _atom_site_symmetry_multiplicity
 _atom_site_fract_x
 _atom_site_fract_y
 _atom_site_fract_z
 _atom_site_occupancy
  Li  Li0  1  0.09445807  0.70755920  0.87084383  1
  Li  Li1  1  0.17261983  0.19651508  0.11741062  1
  Li  Li2  1  0.32738085  0.69651908  0.61740903  1
  Li  Li3  1  0.40554442  0.20755206  0.37083642  1
  Li  Li4  1  0.59445459  0.79244957  0.87084058  1
  Li  Li5  1  0.67261920  0.30347451  0.11740790  1
  Li  Li6  1  0.82737985  0.80348430  0.61741097  1
  Li  Li7  1  0.90554228  0.29244204  0.37084091  1
  Mn  Mn8  1  0.08685244  0.69819225  0.36261276  1
  Mn  Mn9  1  0.41314529  0.19821559  0.86260103  1
  Mn  Mn10  1  0.58685218  0.80178356  0.36260873  1
  Mn  Mn11  1  0.91315110  0.30182713  0.86261272  1
  Si  Si12  1  0.16417696  0.18996708  0.61807991  1
  Si  Si13  1  0.33582167  0.68996663  0.11807939  1
  Si  Si14  1  0.66417783  0.31002739  0.61808113  1
  Si  Si15  1  0.83582329  0.81003726  0.11807949  1
  O  O16  1  0.09786449  0.30011955  0.83359604  1
  O  O17  1  0.09067700  0.28508226  0.40410901  1
  O  O18  1  0.16484942  0.86605427  0.62265636  1
  O  O19  1  0.19569288  0.80246115  0.11280684  1
  O  O20  1  0.30430156  0.30247202  0.61279127  1
  O  O21  1  0.33515108  0.36605777  0.12265339  1
  O  O22  1  0.40931811  0.78509127  0.90410969  1
  O  O23  1  0.40213921  0.80011816  0.33359727  1
  O  O24  1  0.59785956  0.19987639  0.83359463  1
  O  O25  1  0.59068075  0.21489748  0.40410718  1
  O  O26  1  0.66484777  0.63394139  0.62265444  1
  O  O27  1  0.69569746  0.69752992  0.11279950  1
  O  O28  1  0.80430919  0.19753612  0.61281046  1
  O  O29  1  0.83515078  0.13394723  0.12265069  1
  O  O30  1  0.90932267  0.71492136  0.90411319  1
  O  O31  1  0.90213822  0.69988093  0.33359460  1
