# generated using pymatgen
data_Mg10FeO11
_symmetry_space_group_name_H-M   'P 1'
_cell_length_a   6.76158024
_cell_length_b   6.76643573
_cell_length_c   5.22244856
_cell_angle_alpha   104.98229289
_cell_angle_beta   97.68925541
_cell_angle_gamma   107.45998198
_symmetry_Int_Tables_number   1
_chemical_formula_structural   Mg10FeO11
_chemical_formula_sum   'Mg10 Fe1 O11'
_cell_volume   214.30931593
_cell_formula_units_Z   1
loop_
 _symmetry_equiv_pos_site_id
 _symmetry_equiv_pos_as_xyz
  1  'x, y, z'
loop_
 _atom_site_type_symbol
 _atom_site_label
 _atom_site_symmetry_multiplicity
 _atom_site_fract_x
 _atom_site_fract_y
 _atom_site_fract_z
 _atom_site_occupancy
  Mg  Mg0  1  0.18207141  0.63440817  0.90756592  1
  Mg  Mg1  1  0.99974659  0.00195583  0.00152508  1
  Mg  Mg2  1  0.27289642  0.45672026  0.36367216  1
  Mg  Mg3  1  0.36456197  0.27504267  0.81854856  1
  Mg  Mg4  1  0.54497436  0.90900836  0.72790816  1
  Mg  Mg5  1  0.45473660  0.09131039  0.27530843  1
  Mg  Mg6  1  0.72708240  0.54505261  0.63378257  1
  Mg  Mg7  1  0.63684364  0.72735564  0.18118284  1
  Mg  Mg8  1  0.90892258  0.17964374  0.54541884  1
  Mg  Mg9  1  0.81725603  0.36132133  0.09054244  1
  Fe  Fe10  1  0.09090900  0.81818200  0.45454500  1
  O  O11  1  0.99690639  0.49243289  0.50092104  1
  O  O12  1  0.27259966  0.95536416  0.86564367  1
  O  O13  1  0.09090900  0.31818200  0.95454500  1
  O  O14  1  0.45444392  0.59164470  0.77228641  1
  O  O15  1  0.18491161  0.14393111  0.40816996  1
  O  O16  1  0.36933889  0.77153985  0.31355164  1
  O  O17  1  0.63506076  0.22713234  0.68279500  1
  O  O18  1  0.81247911  0.86482415  0.59553936  1
  O  O19  1  0.54675724  0.40923066  0.22629500  1
  O  O20  1  0.90921834  0.68099984  0.04344733  1
  O  O21  1  0.72737408  0.04471930  0.13680459  1
