# generated using pymatgen
data_BaNa4O3
_symmetry_space_group_name_H-M   'P 1'
_cell_length_a   5.93946693
_cell_length_b   9.43542052
_cell_length_c   5.84049389
_cell_angle_alpha   89.28043801
_cell_angle_beta   92.28672558
_cell_angle_gamma   108.34530495
_symmetry_Int_Tables_number   1
_chemical_formula_structural   BaNa4O3
_chemical_formula_sum   'Ba2 Na8 O6'
_cell_volume   310.42699601
_cell_formula_units_Z   2
loop_
 _symmetry_equiv_pos_site_id
 _symmetry_equiv_pos_as_xyz
  1  'x, y, z'
loop_
 _atom_site_type_symbol
 _atom_site_label
 _atom_site_symmetry_multiplicity
 _atom_site_fract_x
 _atom_site_fract_y
 _atom_site_fract_z
 _atom_site_occupancy
  Ba  Ba0  1  0.15278217  0.31066876  0.26099298  1
  Ba  Ba1  1  0.84211341  0.68933124  0.76099298  1
  Na  Na2  1  0.47665075  0.96104784  0.77003502  1
  Na  Na3  1  0.01304081  0.05287895  0.75595243  1
  Na  Na4  1  0.24675417  0.52629044  0.79016065  1
  Na  Na5  1  0.32320596  0.72671464  0.30215200  1
  Na  Na6  1  0.59649132  0.27328536  0.80215200  1
  Na  Na7  1  0.51560291  0.03895216  0.27003502  1
  Na  Na8  1  0.96016186  0.94712105  0.25595243  1
  Na  Na9  1  0.72046373  0.47370956  0.29016065  1
  O  O10  1  0.17261688  0.85338270  0.01214092  1
  O  O11  1  0.04720888  0.53211617  0.48159891  1
  O  O12  1  0.31923418  0.14661730  0.51214092  1
  O  O13  1  0.67254283  0.85813039  0.51965507  1
  O  O14  1  0.51509272  0.46788383  0.98159891  1
  O  O15  1  0.81441144  0.14186961  0.01965507  1
