# generated using pymatgen
data_Li8Mn3CrO12
_symmetry_space_group_name_H-M   'P 1'
_cell_length_a   4.93142448
_cell_length_b   4.95713646
_cell_length_c   8.43459586
_cell_angle_alpha   90.27649670
_cell_angle_beta   90.24777502
_cell_angle_gamma   89.83003533
_symmetry_Int_Tables_number   1
_chemical_formula_structural   Li8Mn3CrO12
_chemical_formula_sum   'Li8 Mn3 Cr1 O12'
_cell_volume   206.18474866
_cell_formula_units_Z   1
loop_
 _symmetry_equiv_pos_site_id
 _symmetry_equiv_pos_as_xyz
  1  'x, y, z'
loop_
 _atom_site_type_symbol
 _atom_site_label
 _atom_site_symmetry_multiplicity
 _atom_site_fract_x
 _atom_site_fract_y
 _atom_site_fract_z
 _atom_site_occupancy
  Li  Li0  1  0.99695202  0.49854247  0.07978349  1
  Li  Li1  1  0.00102608  0.49935468  0.76970856  1
  Li  Li2  1  0.99869378  0.00010029  0.43364348  1
  Li  Li3  1  0.00044744  0.00047854  0.74622276  1
  Li  Li4  1  0.50156122  0.49976124  0.24301896  1
  Li  Li5  1  0.50075673  0.50045478  0.92992819  1
  Li  Li6  1  0.49974070  0.99970669  0.58366569  1
  Li  Li7  1  0.50391664  0.99961702  0.27091540  1
  Mn  Mn8  1  0.99795806  0.50183235  0.41854443  1
  Mn  Mn9  1  0.49908492  0.49965440  0.59623866  1
  Mn  Mn10  1  0.50171116  0.00378733  0.91573502  1
  Cr  Cr11  1  0.00925134  0.99905308  0.09834822  1
  O  O12  1  0.14137157  0.24990232  0.25592972  1
  O  O13  1  0.17806683  0.21965878  0.92983541  1
  O  O14  1  0.17505640  0.28410234  0.58169558  1
  O  O15  1  0.32264466  0.78416953  0.07960103  1
  O  O16  1  0.32484277  0.71567859  0.43173360  1
  O  O17  1  0.35055938  0.75051266  0.75639428  1
  O  O18  1  0.65015850  0.24934067  0.75628789  1
  O  O19  1  0.67333256  0.28313665  0.43179074  1
  O  O20  1  0.67308861  0.21540469  0.08155854  1
  O  O21  1  0.82534374  0.71531586  0.58279303  1
  O  O22  1  0.82465315  0.78566254  0.93279313  1
  O  O23  1  0.84974872  0.74480549  0.25970221  1
