# generated using pymatgen
data_H7NO6
_symmetry_space_group_name_H-M   'P 1'
_cell_length_a   9.95883947
_cell_length_b   15.35106408
_cell_length_c   3.47383796
_cell_angle_alpha   90.00000000
_cell_angle_beta   90.00000000
_cell_angle_gamma   90.00000000
_symmetry_Int_Tables_number   1
_chemical_formula_structural   H7NO6
_chemical_formula_sum   'H28 N4 O24'
_cell_volume   531.07611920
_cell_formula_units_Z   4
loop_
 _symmetry_equiv_pos_site_id
 _symmetry_equiv_pos_as_xyz
  1  'x, y, z'
loop_
 _atom_site_type_symbol
 _atom_site_label
 _atom_site_symmetry_multiplicity
 _atom_site_fract_x
 _atom_site_fract_y
 _atom_site_fract_z
 _atom_site_occupancy
  H  H0  1  0.58681196  0.74791660  0.35908325  1
  H  H1  1  0.91318804  0.25208340  0.85908325  1
  H  H2  1  0.08681196  0.75208340  0.64091675  1
  H  H3  1  0.41318804  0.24791660  0.14091675  1
  H  H4  1  0.47996681  0.66784712  0.95541789  1
  H  H5  1  0.53665644  0.59660105  0.24901951  1
  H  H6  1  0.96334356  0.40339895  0.74901951  1
  H  H7  1  0.02003319  0.33215288  0.45541789  1
  H  H8  1  0.03665644  0.90339895  0.75098049  1
  H  H9  1  0.97996681  0.83215288  0.04458211  1
  H  H10  1  0.46334356  0.09660105  0.25098049  1
  H  H11  1  0.52003319  0.16784712  0.54458211  1
  H  H12  1  0.55710888  0.97963888  0.97945069  1
  H  H13  1  0.41124905  0.96079191  0.15120775  1
  H  H14  1  0.94289112  0.02036112  0.47945069  1
  H  H15  1  0.08875095  0.03920809  0.65120775  1
  H  H16  1  0.05710888  0.52036112  0.02054931  1
  H  H17  1  0.91124905  0.53920809  0.84879225  1
  H  H18  1  0.44289112  0.47963888  0.52054931  1
  H  H19  1  0.58875095  0.46079191  0.34879225  1
  H  H20  1  0.29202493  0.88314926  0.57236437  1
  H  H21  1  0.20333556  0.88187439  0.19831568  1
  H  H22  1  0.29666444  0.11812561  0.69831568  1
  H  H23  1  0.20797507  0.11685074  0.07236437  1
  H  H24  1  0.79202493  0.61685074  0.42763563  1
  H  H25  1  0.70333556  0.61812561  0.80168432  1
  H  H26  1  0.70797507  0.38314926  0.92763563  1
  H  H27  1  0.79666444  0.38187439  0.30168432  1
  N  N28  1  0.72718306  0.83553376  0.31269120  1
  N  N29  1  0.77281694  0.16446624  0.81269120  1
  N  N30  1  0.22718306  0.66446624  0.68730880  1
  N  N31  1  0.27281694  0.33553376  0.18730880  1
  O  O32  1  0.59921171  0.81308910  0.42821871  1
  O  O33  1  0.90078829  0.18691090  0.92821871  1
  O  O34  1  0.09921171  0.68691090  0.57178129  1
  O  O35  1  0.40078829  0.31308910  0.07178129  1
  O  O36  1  0.81017370  0.77618964  0.27546130  1
  O  O37  1  0.68982630  0.22381036  0.77546130  1
  O  O38  1  0.31017370  0.72381036  0.72453870  1
  O  O39  1  0.18982630  0.27618964  0.22453870  1
  O  O40  1  0.74569738  0.91318801  0.25692937  1
  O  O41  1  0.75430262  0.08681199  0.75692937  1
  O  O42  1  0.24569738  0.58681199  0.74307063  1
  O  O43  1  0.25430262  0.41318801  0.24307063  1
  O  O44  1  0.55560491  0.65661504  0.12940363  1
  O  O45  1  0.94439509  0.34338496  0.62940363  1
  O  O46  1  0.05560491  0.84338496  0.87059637  1
  O  O47  1  0.44439509  0.15661504  0.37059637  1
  O  O48  1  0.47144053  0.00668637  0.04099686  1
  O  O49  1  0.02855947  0.99331363  0.54099686  1
  O  O50  1  0.97144053  0.49331363  0.95900314  1
  O  O51  1  0.52855947  0.50668637  0.45900314  1
  O  O52  1  0.29524078  0.89147901  0.29524191  1
  O  O53  1  0.20475922  0.10852099  0.79524191  1
  O  O54  1  0.79524078  0.60852099  0.70475809  1
  O  O55  1  0.70475922  0.39147901  0.20475809  1
