# generated using pymatgen
data_BaCoN
_symmetry_space_group_name_H-M   'P 1'
_cell_length_a   5.47448310
_cell_length_b   9.70885176
_cell_length_c   23.62038654
_cell_angle_alpha   90.00000000
_cell_angle_beta   90.00000000
_cell_angle_gamma   90.00000000
_symmetry_Int_Tables_number   1
_chemical_formula_structural   BaCoN
_chemical_formula_sum   'Ba20 Co20 N20'
_cell_volume   1255.44586304
_cell_formula_units_Z   20
loop_
 _symmetry_equiv_pos_site_id
 _symmetry_equiv_pos_as_xyz
  1  'x, y, z'
loop_
 _atom_site_type_symbol
 _atom_site_label
 _atom_site_symmetry_multiplicity
 _atom_site_fract_x
 _atom_site_fract_y
 _atom_site_fract_z
 _atom_site_occupancy
  Ba  Ba0  1  0.00542642  -0.00185222  0.25000000  1
  Ba  Ba1  1  0.50654081  0.15890598  0.45142813  1
  Ba  Ba2  1  0.95984753  0.67193802  0.84898529  1
  Ba  Ba3  1  0.54015247  0.17193802  0.84898529  1
  Ba  Ba4  1  0.49345919  0.84109402  0.54857187  1
  Ba  Ba5  1  0.99345919  0.65890598  0.04857187  1
  Ba  Ba6  1  0.04015247  0.32806198  0.34898529  1
  Ba  Ba7  1  0.45984753  0.82806198  0.15101471  1
  Ba  Ba8  1  0.95984753  0.67193802  0.65101471  1
  Ba  Ba9  1  0.00654081  0.34109402  0.95142813  1
  Ba  Ba10  1  0.45984753  0.82806198  0.34898529  1
  Ba  Ba11  1  0.00654081  0.34109402  0.54857187  1
  Ba  Ba12  1  0.04015247  0.32806198  0.15101471  1
  Ba  Ba13  1  0.99345919  0.65890598  0.45142813  1
  Ba  Ba14  1  0.49345919  0.84109402  0.95142813  1
  Ba  Ba15  1  0.49457358  0.49814778  0.25000000  1
  Ba  Ba16  1  0.54015247  0.17193802  0.65101471  1
  Ba  Ba17  1  0.50542642  0.50185222  0.75000000  1
  Ba  Ba18  1  0.99457358  1.00185222  0.75000000  1
  Ba  Ba19  1  0.50654081  0.15890598  0.04857187  1
  Co  Co20  1  0.45696203  0.84951486  0.80207149  1
  Co  Co21  1  0.54303797  0.15048514  0.30207149  1
  Co  Co22  1  0.04303797  0.34951486  0.80207149  1
  Co  Co23  1  0.04208795  0.99318202  0.89749839  1
  Co  Co24  1  0.95791205  0.00681798  0.39749839  1
  Co  Co25  1  0.45791205  0.49318202  0.89749839  1
  Co  Co26  1  0.95696203  0.65048514  0.19792851  1
  Co  Co27  1  0.45791205  0.49318202  0.60250161  1
  Co  Co28  1  0.54208795  0.50681798  0.39749839  1
  Co  Co29  1  0.04208795  0.99318202  0.60250161  1
  Co  Co30  1  0.04303797  0.34951486  0.69792851  1
  Co  Co31  1  0.00000000  0.00000000  0.50000000  1
  Co  Co32  1  0.54303797  0.15048514  0.19792851  1
  Co  Co33  1  0.95696203  0.65048514  0.30207149  1
  Co  Co34  1  0.45696203  0.84951486  0.69792851  1
  Co  Co35  1  0.00000000  0.00000000  0.00000000  1
  Co  Co36  1  0.54208795  0.50681798  0.10250161  1
  Co  Co37  1  0.95791205  0.00681798  0.10250161  1
  Co  Co38  1  0.50000000  0.50000000  0.50000000  1
  Co  Co39  1  0.50000000  0.50000000  0.00000000  1
  N  N40  1  0.25190280  0.92125443  0.85053224  1
  N  N41  1  0.75190280  0.57874557  0.35053224  1
  N  N42  1  0.68224203  0.57032899  0.55724503  1
  N  N43  1  0.24809720  0.42125443  0.85053224  1
  N  N44  1  0.33735558  0.22328076  0.25000000  1
  N  N45  1  0.81775797  0.07032899  0.55724503  1
  N  N46  1  0.16264442  0.72328076  0.25000000  1
  N  N47  1  0.66264442  0.77671924  0.75000000  1
  N  N48  1  0.68224203  0.57032899  0.94275497  1
  N  N49  1  0.74809720  0.07874557  0.14946776  1
  N  N50  1  0.75190280  0.57874557  0.14946776  1
  N  N51  1  0.31775797  0.42967101  0.44275497  1
  N  N52  1  0.18224203  0.92967101  0.44275497  1
  N  N53  1  0.81775797  0.07032899  0.94275497  1
  N  N54  1  0.74809720  0.07874557  0.35053224  1
  N  N55  1  0.83735558  0.27671924  0.75000000  1
  N  N56  1  0.24809720  0.42125443  0.64946776  1
  N  N57  1  0.18224203  0.92967101  0.05724503  1
  N  N58  1  0.25190280  0.92125443  0.64946776  1
  N  N59  1  0.31775797  0.42967101  0.05724503  1
