# generated using pymatgen
data_SbCl3F2
_symmetry_space_group_name_H-M   'P 1'
_cell_length_a   7.41763552
_cell_length_b   10.13786476
_cell_length_c   10.13786390
_cell_angle_alpha   82.30859026
_cell_angle_beta   68.54082739
_cell_angle_gamma   68.54082217
_symmetry_Int_Tables_number   1
_chemical_formula_structural   SbCl3F2
_chemical_formula_sum   'Sb4 Cl12 F8'
_cell_volume   660.32505699
_cell_formula_units_Z   4
loop_
 _symmetry_equiv_pos_site_id
 _symmetry_equiv_pos_as_xyz
  1  'x, y, z'
loop_
 _atom_site_type_symbol
 _atom_site_label
 _atom_site_symmetry_multiplicity
 _atom_site_fract_x
 _atom_site_fract_y
 _atom_site_fract_z
 _atom_site_occupancy
  Sb  Sb0  1  0.20535932  0.82722623  0.73419194  1
  Sb  Sb1  1  0.93955126  0.26580806  0.82722623  1
  Sb  Sb2  1  0.76677749  0.17277377  0.26580806  1
  Sb  Sb3  1  0.03258555  0.73419194  0.17277377  1
  Cl  Cl4  1  0.03360352  0.30011820  0.58381311  1
  Cl  Cl5  1  0.61741663  0.41618689  0.30011820  1
  Cl  Cl6  1  0.33550300  0.76728774  0.15334339  1
  Cl  Cl7  1  0.91753483  0.69988180  0.41618689  1
  Cl  Cl8  1  0.33372172  0.58381311  0.69988180  1
  Cl  Cl9  1  0.27493550  0.90205149  0.50055878  1
  Cl  Cl10  1  0.77549428  0.49944122  0.90205149  1
  Cl  Cl11  1  0.17698699  0.50055878  0.09794851  1
  Cl  Cl12  1  0.25613413  0.23271226  0.84665661  1
  Cl  Cl13  1  0.10279074  0.15334339  0.23271226  1
  Cl  Cl14  1  0.48884640  0.84665661  0.76728774  1
  Cl  Cl15  1  0.67754577  0.09794851  0.49944122  1
  F  F16  1  0.89770584  0.95718809  0.19940836  1
  F  F17  1  0.77357286  0.76093344  0.15651913  1
  F  F18  1  0.53450630  0.15651913  0.23906656  1
  F  F19  1  0.93009199  0.84348087  0.76093344  1
  F  F20  1  0.09711420  0.80059164  0.95718809  1
  F  F21  1  0.85489394  0.19940836  0.04281191  1
  F  F22  1  0.69102543  0.23906656  0.84348087  1
  F  F23  1  0.05430230  0.04281191  0.80059164  1
