# generated using pymatgen
data_K2HS2NO6
_symmetry_space_group_name_H-M   'P 1'
_cell_length_a   7.38777986
_cell_length_b   7.28558323
_cell_length_c   7.91878935
_cell_angle_alpha   90.00000000
_cell_angle_beta   94.46223139
_cell_angle_gamma   90.00000000
_symmetry_Int_Tables_number   1
_chemical_formula_structural   K2HS2NO6
_chemical_formula_sum   'K4 H2 S4 N2 O12'
_cell_volume   424.93122275
_cell_formula_units_Z   2
loop_
 _symmetry_equiv_pos_site_id
 _symmetry_equiv_pos_as_xyz
  1  'x, y, z'
loop_
 _atom_site_type_symbol
 _atom_site_label
 _atom_site_symmetry_multiplicity
 _atom_site_fract_x
 _atom_site_fract_y
 _atom_site_fract_z
 _atom_site_occupancy
  K  K0  1  0.11501903  0.33846400  0.27604261  1
  K  K1  1  0.37414683  0.33127422  0.72813229  1
  K  K2  1  0.61501903  0.66153600  0.27604261  1
  K  K3  1  0.87414683  0.66872578  0.72813229  1
  H  H4  1  0.33710787  0.02426472  0.45654214  1
  H  H5  1  0.83710787  0.97573528  0.45654214  1
  S  S6  1  0.13411465  0.82000302  0.33674208  1
  S  S7  1  0.36904389  0.81265514  0.66711106  1
  S  S8  1  0.63411465  0.17999698  0.33674208  1
  S  S9  1  0.86904389  0.18734486  0.66711106  1
  N  N10  1  0.25337966  0.92474983  0.50182837  1
  N  N11  1  0.75337966  0.07525017  0.50182837  1
  O  O12  1  0.01390124  0.29959063  0.59984896  1
  O  O13  1  0.07302623  0.97494596  0.23077238  1
  O  O14  1  0.23366939  0.69595691  0.73936771  1
  O  O15  1  0.25140085  0.68890227  0.25625150  1
  O  O16  1  0.43812879  0.96538583  0.77205840  1
  O  O17  1  0.48306157  0.27569361  0.41230250  1
  O  O18  1  0.51390124  0.70040937  0.59984896  1
  O  O19  1  0.57302623  0.02505404  0.23077238  1
  O  O20  1  0.73366939  0.30404309  0.73936771  1
  O  O21  1  0.75140085  0.31109773  0.25625150  1
  O  O22  1  0.93812879  0.03461417  0.77205840  1
  O  O23  1  0.98306157  0.72430639  0.41230250  1
