# generated using pymatgen
data_Li4MnV2WO12
_symmetry_space_group_name_H-M   'P 1'
_cell_length_a   5.33598989
_cell_length_b   10.69396563
_cell_length_c   9.42155732
_cell_angle_alpha   28.22886373
_cell_angle_beta   51.24435932
_cell_angle_gamma   56.46770578
_symmetry_Int_Tables_number   1
_chemical_formula_structural   Li4MnV2WO12
_chemical_formula_sum   'Li4 Mn1 V2 W1 O12'
_cell_volume   198.30218990
_cell_formula_units_Z   1
loop_
 _symmetry_equiv_pos_site_id
 _symmetry_equiv_pos_as_xyz
  1  'x, y, z'
loop_
 _atom_site_type_symbol
 _atom_site_label
 _atom_site_symmetry_multiplicity
 _atom_site_fract_x
 _atom_site_fract_y
 _atom_site_fract_z
 _atom_site_occupancy
  Li  Li0  1  0.26440151  0.00072264  0.31218848  1
  Li  Li1  1  0.31949233  0.49512641  0.27579154  1
  Li  Li2  1  0.79262116  0.00872047  0.74329130  1
  Li  Li3  1  0.76063384  0.49539721  0.81463586  1
  Mn  Mn4  1  0.00457570  0.49885287  0.00871278  1
  V  V5  1  0.49822647  0.00041025  0.51293335  1
  V  V6  1  0.52550175  0.50036002  0.50425354  1
  W  W7  1  0.00782619  0.00352155  0.00442750  1
  O  O8  1  0.35220141  0.28943384  0.14560134  1
  O  O9  1  0.22939635  0.11504099  0.63201303  1
  O  O10  1  0.11934732  0.32055866  0.73183383  1
  O  O11  1  0.83868040  0.19557614  0.24290679  1
  O  O12  1  0.37329572  0.81447315  0.11395216  1
  O  O13  1  0.71932003  0.38972764  0.36050466  1
  O  O14  1  0.25790459  0.61122549  0.61914790  1
  O  O15  1  0.62393869  0.18681795  0.86233974  1
  O  O16  1  0.13976744  0.81179719  0.72935461  1
  O  O17  1  0.87144014  0.68541821  0.24486723  1
  O  O18  1  0.74144805  0.87636593  0.36647490  1
  O  O19  1  0.63118191  0.70045340  0.84596945  1
