# generated using pymatgen
data_LiCrP2O7
_symmetry_space_group_name_H-M   'P 1'
_cell_length_a   4.86832772
_cell_length_b   7.00223681
_cell_length_c   8.18370561
_cell_angle_alpha   90.00000000
_cell_angle_beta   90.00000000
_cell_angle_gamma   108.44877531
_symmetry_Int_Tables_number   1
_chemical_formula_structural   LiCrP2O7
_chemical_formula_sum   'Li2 Cr2 P4 O14'
_cell_volume   264.63842579
_cell_formula_units_Z   2
loop_
 _symmetry_equiv_pos_site_id
 _symmetry_equiv_pos_as_xyz
  1  'x, y, z'
loop_
 _atom_site_type_symbol
 _atom_site_label
 _atom_site_symmetry_multiplicity
 _atom_site_fract_x
 _atom_site_fract_y
 _atom_site_fract_z
 _atom_site_occupancy
  Li  Li0  1  0.17906159  0.17461216  0.88589351  1
  Li  Li1  1  0.82093841  0.82538784  0.38589351  1
  O  O2  1  0.40665298  0.74704533  0.09848046  1
  O  O3  1  0.59334702  0.25295467  0.59848046  1
  O  O4  1  0.40175167  0.10813266  0.06866065  1
  O  O5  1  0.59824833  0.89186734  0.56866065  1
  O  O6  1  0.59789153  0.41661464  0.31507007  1
  O  O7  1  0.40210847  0.58338536  0.81507007  1
  O  O8  1  0.86456006  0.61561371  0.55524539  1
  O  O9  1  0.13543994  0.38438629  0.05524539  1
  O  O10  1  0.05142841  0.35442355  0.42522021  1
  O  O11  1  0.94857159  0.64557645  0.92522021  1
  O  O12  1  0.24850005  0.01036031  0.40147455  1
  O  O13  1  0.75149995  0.98963969  0.90147455  1
  O  O14  1  0.18267329  0.98111962  0.71011451  1
  O  O15  1  0.81732671  0.01888038  0.21011451  1
  P  P16  1  0.60143721  0.97769612  0.06821672  1
  P  P17  1  0.39856279  0.02230388  0.56821672  1
  P  P18  1  0.21547737  0.58651961  0.96529331  1
  P  P19  1  0.78452263  0.41348039  0.46529331  1
  Cr  Cr20  1  0.78505129  0.77119434  0.74863063  1
  Cr  Cr21  1  0.21494871  0.22880566  0.24863063  1
