# generated using pymatgen
data_Mn4OF8
_symmetry_space_group_name_H-M   'P 1'
_cell_length_a   5.48588768
_cell_length_b   5.41740074
_cell_length_c   15.01527752
_cell_angle_alpha   90.00197625
_cell_angle_beta   92.63813779
_cell_angle_gamma   60.41324157
_symmetry_Int_Tables_number   1
_chemical_formula_structural   Mn4OF8
_chemical_formula_sum   'Mn8 O2 F16'
_cell_volume   387.51324193
_cell_formula_units_Z   2
loop_
 _symmetry_equiv_pos_site_id
 _symmetry_equiv_pos_as_xyz
  1  'x, y, z'
loop_
 _atom_site_type_symbol
 _atom_site_label
 _atom_site_symmetry_multiplicity
 _atom_site_fract_x
 _atom_site_fract_y
 _atom_site_fract_z
 _atom_site_occupancy
  Mn  Mn0  1  0.65606847  0.70200521  0.46658544  1
  Mn  Mn1  1  0.35212310  0.33203890  0.82167376  1
  Mn  Mn2  1  0.65604856  0.64196860  0.96656883  1
  Mn  Mn3  1  0.32408498  0.33343007  0.01385194  1
  Mn  Mn4  1  0.32410551  0.34247520  0.51386189  1
  Mn  Mn5  1  0.66941220  0.67614668  0.68040947  1
  Mn  Mn6  1  0.66936639  0.65445706  0.18040093  1
  Mn  Mn7  1  0.35207109  0.31588099  0.32168421  1
  O  O8  1  0.35108648  0.55781470  0.92111952  1
  O  O9  1  0.35109058  0.09110195  0.42112788  1
  F  F10  1  0.04700554  0.63832478  0.42668475  1
  F  F11  1  0.40217691  0.98304237  0.07657576  1
  F  F12  1  0.38006690  0.58103725  0.24583173  1
  F  F13  1  0.04696806  0.31470799  0.92666890  1
  F  F14  1  0.40217100  0.61474379  0.57661167  1
  F  F15  1  0.60198880  -0.00002563  0.58009896  1
  F  F16  1  0.63113879  0.97536635  0.25850669  1
  F  F17  1  0.38009500  0.03887988  0.74581879  1
  F  F18  1  0.01208216  0.62170890  0.75823917  1
  F  F19  1  0.94909080  0.61299313  0.07257334  1
  F  F20  1  0.60504919  0.38350486  0.41249523  1
  F  F21  1  0.60196794  0.39803915  0.08009940  1
  F  F22  1  0.63127777  0.39343275  0.75852492  1
  F  F23  1  0.94910416  0.43789878  0.57257679  1
  F  F24  1  0.60505050  0.01147213  0.91248248  1
  F  F25  1  0.01197912  0.36630717  0.25825457  1
