# generated using pymatgen
data_CrP2O7
_symmetry_space_group_name_H-M   'P 1'
_cell_length_a   6.97972886
_cell_length_b   8.03824807
_cell_length_c   4.80452577
_cell_angle_alpha   90.00000000
_cell_angle_beta   106.34554434
_cell_angle_gamma   90.00000000
_symmetry_Int_Tables_number   1
_chemical_formula_structural   CrP2O7
_chemical_formula_sum   'Cr2 P4 O14'
_cell_volume   258.66193687
_cell_formula_units_Z   2
loop_
 _symmetry_equiv_pos_site_id
 _symmetry_equiv_pos_as_xyz
  1  'x, y, z'
loop_
 _atom_site_type_symbol
 _atom_site_label
 _atom_site_symmetry_multiplicity
 _atom_site_fract_x
 _atom_site_fract_y
 _atom_site_fract_z
 _atom_site_occupancy
  O  O0  1  0.51221238  0.36524394  0.27864184  1
  O  O1  1  0.91317181  0.67202225  0.14004043  1
  O  O2  1  0.08682865  0.17202309  0.85995939  1
  O  O3  1  0.17144896  0.82619467  0.97201966  1
  O  O4  1  0.09346798  0.92284102  0.42986544  1
  O  O5  1  0.26962131  0.64257164  0.41891243  1
  O  O6  1  0.36693564  0.17866937  0.58235660  1
  O  O7  1  0.48778808  0.86524435  0.72135798  1
  O  O8  1  0.90653246  0.42284061  0.57013646  1
  O  O9  1  0.46114864  0.05788635  0.14550596  1
  O  O10  1  0.82854998  0.32619426  0.02798161  1
  O  O11  1  0.63306482  0.67866852  0.41764322  1
  O  O12  1  0.73037913  0.14257249  0.58108947  1
  O  O13  1  0.53885032  0.55788676  0.85449324  1
  P  P14  1  0.49180760  0.68787344  0.61263266  1
  P  P15  1  0.50819136  0.18787303  0.38736653  1
  P  P16  1  0.10379144  0.77122973  0.23354045  1
  P  P17  1  0.89620751  0.27123057  0.76645874  1
  Cr  Cr18  1  0.72719696  0.50506739  0.21931520  1
  Cr  Cr19  1  0.27280350  0.00506699  0.78068462  1
