# generated using pymatgen
data_VMoO5
_symmetry_space_group_name_H-M   'P 1'
_cell_length_a   3.82562055
_cell_length_b   5.25396111
_cell_length_c   5.15785957
_cell_angle_alpha   93.32778533
_cell_angle_beta   111.79609645
_cell_angle_gamma   68.73245261
_symmetry_Int_Tables_number   1
_chemical_formula_structural   VMoO5
_chemical_formula_sum   'V1 Mo1 O5'
_cell_volume   89.35179062
_cell_formula_units_Z   1
loop_
 _symmetry_equiv_pos_site_id
 _symmetry_equiv_pos_as_xyz
  1  'x, y, z'
loop_
 _atom_site_type_symbol
 _atom_site_label
 _atom_site_symmetry_multiplicity
 _atom_site_fract_x
 _atom_site_fract_y
 _atom_site_fract_z
 _atom_site_occupancy
  V  V0  1  0.86157637  0.64920205  0.22882652  1
  Mo  Mo1  1  0.30686693  0.33549573  0.80781360  1
  O  O2  1  0.97446838  0.75251393  0.55400782  1
  O  O3  1  0.34080754  0.58753659  0.12553736  1
  O  O4  1  0.56293849  0.00146268  0.98540820  1
  O  O5  1  0.15926808  0.26604855  0.44516988  1
  O  O6  1  0.79407420  0.40774048  0.85323662  1
