# generated using pymatgen
data_Nb3TeI7
_symmetry_space_group_name_H-M   'P 1'
_cell_length_a   7.73354450
_cell_length_b   7.73354450
_cell_length_c   14.88342114
_cell_angle_alpha   90.00000000
_cell_angle_beta   90.00000000
_cell_angle_gamma   119.99999999
_symmetry_Int_Tables_number   1
_chemical_formula_structural   Nb3TeI7
_chemical_formula_sum   'Nb6 Te2 I14'
_cell_volume   770.88674849
_cell_formula_units_Z   2
loop_
 _symmetry_equiv_pos_site_id
 _symmetry_equiv_pos_as_xyz
  1  'x, y, z'
loop_
 _atom_site_type_symbol
 _atom_site_label
 _atom_site_symmetry_multiplicity
 _atom_site_fract_x
 _atom_site_fract_y
 _atom_site_fract_z
 _atom_site_occupancy
  Nb  Nb0  1  0.86762256  0.13237744  0.24929549  1
  Nb  Nb1  1  0.73524512  0.86762256  0.74929549  1
  Nb  Nb2  1  0.13237744  0.26475488  0.74929549  1
  Nb  Nb3  1  0.86762256  0.73524512  0.24929549  1
  Nb  Nb4  1  0.26475488  0.13237744  0.24929549  1
  Nb  Nb5  1  0.13237744  0.86762256  0.74929549  1
  Te  Te6  1  0.00000000  0.00000000  0.10921529  1
  Te  Te7  1  0.00000000  0.00000000  0.60921529  1
  I  I8  1  0.66666667  0.33333333  0.34747123  1
  I  I9  1  0.33333333  0.66666667  0.84747123  1
  I  I10  1  0.16713716  0.83286284  0.37430013  1
  I  I11  1  0.33427431  0.16713716  0.87430013  1
  I  I12  1  0.83286284  0.66572569  0.87430013  1
  I  I13  1  0.16713716  0.33427431  0.37430013  1
  I  I14  1  0.66572569  0.83286284  0.37430013  1
  I  I15  1  0.83286284  0.16713716  0.87430013  1
  I  I16  1  0.49879909  0.50120091  0.14590888  1
  I  I17  1  0.99759819  0.49879909  0.64590888  1
  I  I18  1  0.50120091  0.00240181  0.64590888  1
  I  I19  1  0.49879909  0.99759819  0.14590888  1
  I  I20  1  0.00240181  0.50120091  0.14590888  1
  I  I21  1  0.50120091  0.49879909  0.64590888  1
