# generated using pymatgen
data_V2O5
_symmetry_space_group_name_H-M   'P 1'
_cell_length_a   11.52680854
_cell_length_b   10.00850065
_cell_length_c   3.62244911
_cell_angle_alpha   90.00000000
_cell_angle_beta   90.00000000
_cell_angle_gamma   90.00000000
_symmetry_Int_Tables_number   1
_chemical_formula_structural   V2O5
_chemical_formula_sum   'V8 O20'
_cell_volume   417.90772037
_cell_formula_units_Z   4
loop_
 _symmetry_equiv_pos_site_id
 _symmetry_equiv_pos_as_xyz
  1  'x, y, z'
loop_
 _atom_site_type_symbol
 _atom_site_label
 _atom_site_symmetry_multiplicity
 _atom_site_fract_x
 _atom_site_fract_y
 _atom_site_fract_z
 _atom_site_occupancy
  O  O0  1  0.00000000  0.00701046  0.67569100  1
  O  O1  1  0.00000000  0.50695906  0.52435580  1
  O  O2  1  0.14042054  0.28877495  0.53348521  1
  O  O3  1  0.14038184  0.78880152  0.66646874  1
  O  O4  1  0.18168726  0.99698311  0.17159903  1
  O  O5  1  0.18169220  0.49695379  0.02837459  1
  O  O6  1  0.31831274  0.00301689  0.67159903  1
  O  O7  1  0.31830780  0.50304621  0.52837459  1
  O  O8  1  0.35957946  0.71122505  0.03348521  1
  O  O9  1  0.35961816  0.21119848  0.16646874  1
  O  O10  1  0.50000000  0.49304094  0.02435580  1
  O  O11  1  0.50000000  0.99298954  0.17569100  1
  O  O12  1  0.64038184  0.21119848  0.16646874  1
  O  O13  1  0.64042054  0.71122505  0.03348521  1
  O  O14  1  0.68169220  0.50304621  0.52837459  1
  O  O15  1  0.68168726  0.00301689  0.67159903  1
  O  O16  1  0.81831274  0.99698311  0.17159903  1
  O  O17  1  0.81830780  0.49695379  0.02837459  1
  O  O18  1  0.85957946  0.28877495  0.53348521  1
  O  O19  1  0.85961816  0.78880152  0.66646874  1
  V  V20  1  0.14860906  0.44890132  0.52906602  1
  V  V21  1  0.14860262  0.94894000  0.67098301  1
  V  V22  1  0.35139738  0.05106000  0.17098301  1
  V  V23  1  0.35139094  0.55109868  0.02906602  1
  V  V24  1  0.64860262  0.05106000  0.17098301  1
  V  V25  1  0.64860906  0.55109868  0.02906602  1
  V  V26  1  0.85139094  0.44890132  0.52906602  1
  V  V27  1  0.85139738  0.94894000  0.67098301  1
