# generated using pymatgen
data_Li3MnV(P2O7)2
_symmetry_space_group_name_H-M   'P 1'
_cell_length_a   5.05058314
_cell_length_b   7.09237606
_cell_length_c   8.36808126
_cell_angle_alpha   90.82938898
_cell_angle_beta   90.20039788
_cell_angle_gamma   70.87586753
_symmetry_Int_Tables_number   1
_chemical_formula_structural   Li3MnV(P2O7)2
_chemical_formula_sum   'Li3 Mn1 V1 P4 O14'
_cell_volume   283.17716738
_cell_formula_units_Z   1
loop_
 _symmetry_equiv_pos_site_id
 _symmetry_equiv_pos_as_xyz
  1  'x, y, z'
loop_
 _atom_site_type_symbol
 _atom_site_label
 _atom_site_symmetry_multiplicity
 _atom_site_fract_x
 _atom_site_fract_y
 _atom_site_fract_z
 _atom_site_occupancy
  Li  Li0  1  0.17736605  0.34048575  0.85117554  1
  Li  Li1  1  0.27305252  0.90378573  0.16118304  1
  Li  Li2  1  0.81872896  0.65533520  0.35661742  1
  Mn  Mn3  1  0.80240468  0.73059424  0.98344187  1
  V  V4  1  0.21536246  0.27502026  0.50467894  1
  P  P5  1  0.39244799  0.47506821  0.18585238  1
  P  P6  1  0.22289054  0.91962705  0.78184756  1
  P  P7  1  0.79224929  0.08745585  0.29691341  1
  P  P8  1  0.60529397  0.52197381  0.67880813  1
  O  O9  1  0.07338038  0.12045128  0.33502558  1
  O  O10  1  0.16849889  0.11831414  0.69459574  1
  O  O11  1  0.20579974  0.49551674  0.03992182  1
  O  O12  1  0.22499018  0.47871365  0.34113600  1
  O  O13  1  0.38424294  0.41507365  0.67180308  1
  O  O14  1  0.60531670  0.09213403  0.43897069  1
  O  O15  1  0.62847816  0.25643538  0.16976035  1
  O  O16  1  0.43650754  0.75810996  0.66050052  1
  O  O17  1  0.37747071  0.92576302  0.94033422  1
  O  O18  1  0.54284639  0.63133984  0.19549570  1
  O  O19  1  0.76122725  0.49071688  0.83757163  1
  O  O20  1  0.80438105  0.47541577  0.53376128  1
  O  O21  1  0.86944840  0.88898686  0.20221242  1
  O  O22  1  0.96243822  0.86316270  0.80408367  1
