# generated using pymatgen
data_TmCu(BO2)5
_symmetry_space_group_name_H-M   'P 1'
_cell_length_a   6.30615508
_cell_length_b   8.27216139
_cell_length_c   8.27216139
_cell_angle_alpha   62.24523417
_cell_angle_beta   67.59399252
_cell_angle_gamma   67.59399247
_symmetry_Int_Tables_number   1
_chemical_formula_structural   TmCu(BO2)5
_chemical_formula_sum   'Tm2 Cu2 B10 O20'
_cell_volume   341.93181954
_cell_formula_units_Z   2
loop_
 _symmetry_equiv_pos_site_id
 _symmetry_equiv_pos_as_xyz
  1  'x, y, z'
loop_
 _atom_site_type_symbol
 _atom_site_label
 _atom_site_symmetry_multiplicity
 _atom_site_fract_x
 _atom_site_fract_y
 _atom_site_fract_z
 _atom_site_occupancy
  B  B0  1  0.54204678  0.53358678  0.15024659  1
  B  B1  1  0.30872426  0.69127574  0.69127574  1
  B  B2  1  0.80872426  0.19127574  0.19127574  1
  B  B3  1  0.34352454  0.73234813  0.34882105  1
  B  B4  1  0.57530628  0.34882105  0.73234813  1
  B  B5  1  0.77411984  0.15024659  0.53358678  1
  B  B6  1  0.27411984  0.03358678  0.65024659  1
  B  B7  1  0.04204678  0.65024659  0.03358678  1
  B  B8  1  0.84352454  0.84882105  0.23234813  1
  B  B9  1  0.07530628  0.23234813  0.84882105  1
  O  O10  1  0.38502959  0.89761117  0.21049164  1
  O  O11  1  0.88502959  0.71049164  0.39761117  1
  O  O12  1  0.00686760  0.39761117  0.71049164  1
  O  O13  1  0.50686760  0.21049164  0.89761117  1
  O  O14  1  0.61061224  0.67177847  0.98491148  1
  O  O15  1  0.73269782  0.98491148  0.67177847  1
  O  O16  1  0.23269782  0.17177847  0.48491148  1
  O  O17  1  0.11061224  0.48491148  0.17177847  1
  O  O18  1  0.59507597  0.34920537  0.16111932  1
  O  O19  1  0.89459934  0.16111932  0.34920537  1
  O  O20  1  0.39459934  0.84920537  0.66111932  1
  O  O21  1  0.09507597  0.66111932  0.84920537  1
  O  O22  1  0.91097229  0.81516691  0.06737416  1
  O  O23  1  0.20648664  0.06737416  0.81516691  1
  O  O24  1  0.70648664  0.31516691  0.56737416  1
  O  O25  1  0.41097229  0.56737416  0.31516691  1
  O  O26  1  0.72308189  0.03313170  0.22169457  1
  O  O27  1  0.02209183  0.22169457  0.03313170  1
  O  O28  1  0.52209183  0.53313170  0.72169457  1
  O  O29  1  0.22308189  0.72169457  0.53313170  1
  Cu  Cu30  1  0.05882993  0.44117007  0.44117007  1
  Cu  Cu31  1  0.55882993  0.94117007  0.94117007  1
  Tm  Tm32  1  0.80876315  0.69123685  0.69123685  1
  Tm  Tm33  1  0.30876315  0.19123685  0.19123685  1
