# generated using pymatgen
data_K6CoSe4
_symmetry_space_group_name_H-M   'P 1'
_cell_length_a   10.21702315
_cell_length_b   10.21702315
_cell_length_c   8.01614022
_cell_angle_alpha   90.00000000
_cell_angle_beta   90.00000000
_cell_angle_gamma   119.99999997
_symmetry_Int_Tables_number   1
_chemical_formula_structural   K6CoSe4
_chemical_formula_sum   'K12 Co2 Se8'
_cell_volume   724.67735736
_cell_formula_units_Z   2
loop_
 _symmetry_equiv_pos_site_id
 _symmetry_equiv_pos_as_xyz
  1  'x, y, z'
loop_
 _atom_site_type_symbol
 _atom_site_label
 _atom_site_symmetry_multiplicity
 _atom_site_fract_x
 _atom_site_fract_y
 _atom_site_fract_z
 _atom_site_occupancy
  K  K0  1  0.14668398  0.85331602  0.54341689  1
  K  K1  1  0.29336795  0.14668398  0.04341689  1
  K  K2  1  0.85331602  0.70663205  0.04341689  1
  K  K3  1  0.14668398  0.29336795  0.54341689  1
  K  K4  1  0.70663205  0.85331602  0.54341689  1
  K  K5  1  0.85331602  0.14668398  0.04341689  1
  K  K6  1  0.52815847  0.47184153  0.36637188  1
  K  K7  1  0.05631693  0.52815847  0.86637188  1
  K  K8  1  0.47184153  0.94368307  0.86637188  1
  K  K9  1  0.52815847  0.05631693  0.36637188  1
  K  K10  1  0.94368307  0.47184153  0.36637188  1
  K  K11  1  0.47184153  0.52815847  0.86637188  1
  Co  Co12  1  0.33333333  0.66666667  0.25264197  1
  Co  Co13  1  0.66666667  0.33333333  0.75264197  1
  Se  Se14  1  0.33333333  0.66666667  0.56330173  1
  Se  Se15  1  0.66666667  0.33333333  0.06330173  1
  Se  Se16  1  0.19892861  0.80107139  0.15479666  1
  Se  Se17  1  0.39785723  0.19892861  0.65479666  1
  Se  Se18  1  0.80107139  0.60214277  0.65479666  1
  Se  Se19  1  0.19892861  0.39785723  0.15479666  1
  Se  Se20  1  0.60214277  0.80107139  0.15479666  1
  Se  Se21  1  0.80107139  0.19892861  0.65479666  1
