# generated using pymatgen
data_BN(OF2)2
_symmetry_space_group_name_H-M   'P 1'
_cell_length_a   6.66523868
_cell_length_b   7.00022638
_cell_length_c   9.32462623
_cell_angle_alpha   90.00000000
_cell_angle_beta   104.53259937
_cell_angle_gamma   90.00000000
_symmetry_Int_Tables_number   1
_chemical_formula_structural   BN(OF2)2
_chemical_formula_sum   'B4 N4 O8 F16'
_cell_volume   421.15002943
_cell_formula_units_Z   4
loop_
 _symmetry_equiv_pos_site_id
 _symmetry_equiv_pos_as_xyz
  1  'x, y, z'
loop_
 _atom_site_type_symbol
 _atom_site_label
 _atom_site_symmetry_multiplicity
 _atom_site_fract_x
 _atom_site_fract_y
 _atom_site_fract_z
 _atom_site_occupancy
  B  B0  1  0.25538447  0.81261169  0.50310625  1
  B  B1  1  0.25538447  0.68738831  0.00310625  1
  B  B2  1  0.74461553  0.31261169  0.99689375  1
  B  B3  1  0.74461553  0.18738831  0.49689375  1
  N  N4  1  0.24352863  0.23837588  0.24259564  1
  N  N5  1  0.24352863  0.26162412  0.74259564  1
  N  N6  1  0.75647137  0.76162412  0.75740436  1
  N  N7  1  0.75647137  0.73837588  0.25740436  1
  O  O8  1  0.66299178  0.66980573  0.33044924  1
  O  O9  1  0.33700822  0.16980573  0.16955076  1
  O  O10  1  0.85090580  0.80669650  0.18487783  1
  O  O11  1  0.85090580  0.69330350  0.68487783  1
  O  O12  1  0.14909420  0.19330350  0.81512217  1
  O  O13  1  0.33700822  0.33019427  0.66955076  1
  O  O14  1  0.66299178  0.83019427  0.83044924  1
  O  O15  1  0.14909420  0.30669650  0.31512217  1
  F  F16  1  0.76407677  0.06347299  0.38088515  1
  F  F17  1  0.23592323  0.93652701  0.61911485  1
  F  F18  1  0.56219068  0.20119362  0.94885454  1
  F  F19  1  0.73371090  0.42036926  0.12352643  1
  F  F20  1  0.08119791  0.68904549  0.46528197  1
  F  F21  1  0.23592323  0.56347299  0.11911485  1
  F  F22  1  0.26628910  0.57963074  0.87647357  1
  F  F23  1  0.26628910  0.92036926  0.37647357  1
  F  F24  1  0.43780932  0.70119362  0.55114546  1
  F  F25  1  0.91880209  0.18904549  0.03471803  1
  F  F26  1  0.76407677  0.43652701  0.88088515  1
  F  F27  1  0.43780932  0.79880638  0.05114546  1
  F  F28  1  0.08119791  0.81095451  0.96528197  1
  F  F29  1  0.56219068  0.29880638  0.44885454  1
  F  F30  1  0.73371090  0.07963074  0.62352643  1
  F  F31  1  0.91880209  0.31095451  0.53471803  1
