# generated using pymatgen
data_Li2Cr(H2O3)2
_symmetry_space_group_name_H-M   'P 1'
_cell_length_a   5.60284003
_cell_length_b   7.78531540
_cell_length_c   12.13535118
_cell_angle_alpha   90.00000000
_cell_angle_beta   90.00000000
_cell_angle_gamma   90.00000000
_symmetry_Int_Tables_number   1
_chemical_formula_structural   Li2Cr(H2O3)2
_chemical_formula_sum   'Li8 Cr4 H16 O24'
_cell_volume   529.34252302
_cell_formula_units_Z   4
loop_
 _symmetry_equiv_pos_site_id
 _symmetry_equiv_pos_as_xyz
  1  'x, y, z'
loop_
 _atom_site_type_symbol
 _atom_site_label
 _atom_site_symmetry_multiplicity
 _atom_site_fract_x
 _atom_site_fract_y
 _atom_site_fract_z
 _atom_site_occupancy
  Cr  Cr0  1  0.17632178  0.11783723  0.13471921  1
  Cr  Cr1  1  0.67632178  0.38216277  0.86528079  1
  Cr  Cr2  1  0.82367822  0.61783723  0.36528079  1
  Cr  Cr3  1  0.32367822  0.88216277  0.63471921  1
  O  O4  1  0.29924626  0.36021152  0.61008256  1
  O  O5  1  0.79924626  0.13978848  0.38991744  1
  O  O6  1  0.70075374  0.86021152  0.88991744  1
  O  O7  1  0.20075374  0.63978848  0.11008256  1
  O  O8  1  0.30136492  0.33013872  0.38752871  1
  O  O9  1  0.80136492  0.16986128  0.61247129  1
  O  O10  1  0.69863508  0.83013872  0.11247129  1
  O  O11  1  0.19863508  0.66986128  0.88752871  1
  O  O12  1  0.32950043  0.30217638  0.13844382  1
  O  O13  1  0.82950043  0.19782362  0.86155618  1
  O  O14  1  0.67049957  0.80217638  0.36155618  1
  O  O15  1  0.17049957  0.69782362  0.63844382  1
  O  O16  1  0.38294127  0.34304197  0.84907218  1
  O  O17  1  0.88294127  0.15695803  0.15092782  1
  O  O18  1  0.61705873  0.84304197  0.65092782  1
  O  O19  1  0.11705873  0.65695803  0.34907218  1
  O  O20  1  0.22243080  0.01719728  0.01483675  1
  O  O21  1  0.72243080  0.48280272  0.98516325  1
  O  O22  1  0.77756920  0.51719728  0.48516325  1
  O  O23  1  0.27756920  0.98280272  0.51483675  1
  O  O24  1  0.23356342  0.00344941  0.73730755  1
  O  O25  1  0.73356342  0.49655059  0.26269245  1
  O  O26  1  0.76643658  0.50344941  0.76269245  1
  O  O27  1  0.26643658  0.99655059  0.23730755  1
  Li  Li28  1  0.17746529  0.13837745  0.87206028  1
  Li  Li29  1  0.67746529  0.36162255  0.12793972  1
  Li  Li30  1  0.82253471  0.63837745  0.62793972  1
  Li  Li31  1  0.32253471  0.86162255  0.37206028  1
  Li  Li32  1  0.08044640  0.20376754  0.50149692  1
  Li  Li33  1  0.58044640  0.29623246  0.49850308  1
  Li  Li34  1  0.91955360  0.70376754  0.99850308  1
  Li  Li35  1  0.41955360  0.79623246  0.00149692  1
  H  H36  1  0.26143729  0.48487769  0.61356179  1
  H  H37  1  0.76143729  0.01512231  0.38643821  1
  H  H38  1  0.73856271  0.98487769  0.88643821  1
  H  H39  1  0.23856271  0.51512231  0.11356179  1
  H  H40  1  0.32502906  0.32868550  0.68774551  1
  H  H41  1  0.82502906  0.17131450  0.31225449  1
  H  H42  1  0.67497094  0.82868550  0.81225449  1
  H  H43  1  0.17497094  0.67131450  0.18774551  1
  H  H44  1  0.33484697  0.28536860  0.31369062  1
  H  H45  1  0.83484697  0.21463140  0.68630938  1
  H  H46  1  0.66515303  0.78536860  0.18630938  1
  H  H47  1  0.16515303  0.71463140  0.81369062  1
  H  H48  1  0.25274839  0.45116910  0.37409973  1
  H  H49  1  0.75274839  0.04883090  0.62590027  1
  H  H50  1  0.74725161  0.95116910  0.12590027  1
  H  H51  1  0.24725161  0.54883090  0.87409973  1
