# generated using pymatgen
data_KNa(BH4)2
_symmetry_space_group_name_H-M   'P 1'
_cell_length_a   7.47685904
_cell_length_b   7.47685903
_cell_length_c   7.47685903
_cell_angle_alpha   35.82128538
_cell_angle_beta   35.82128542
_cell_angle_gamma   35.82128542
_symmetry_Int_Tables_number   1
_chemical_formula_structural   KNa(BH4)2
_chemical_formula_sum   'K1 Na1 B2 H8'
_cell_volume   128.01562525
_cell_formula_units_Z   1
loop_
 _symmetry_equiv_pos_site_id
 _symmetry_equiv_pos_as_xyz
  1  'x, y, z'
loop_
 _atom_site_type_symbol
 _atom_site_label
 _atom_site_symmetry_multiplicity
 _atom_site_fract_x
 _atom_site_fract_y
 _atom_site_fract_z
 _atom_site_occupancy
  H  H0  1  0.68031595  0.68031595  0.68031595  1
  H  H1  1  0.31968405  0.31968405  0.31968405  1
  H  H2  1  0.46821051  0.90396571  0.90396571  1
  H  H3  1  0.90396571  0.46821051  0.90396571  1
  H  H4  1  0.90396571  0.90396571  0.46821051  1
  H  H5  1  0.09603429  0.53178949  0.09603429  1
  H  H6  1  0.09603429  0.09603429  0.53178949  1
  H  H7  1  0.53178949  0.09603429  0.09603429  1
  B  B8  1  0.73865207  0.73865207  0.73865207  1
  B  B9  1  0.26134793  0.26134793  0.26134793  1
  Na  Na10  1  0.00000000  0.00000000  0.00000000  1
  K  K11  1  0.50000000  0.50000000  0.50000000  1
