# generated using pymatgen
data_P(HO)3
_symmetry_space_group_name_H-M   'P 1'
_cell_length_a   7.53609264
_cell_length_b   11.86611110
_cell_length_c   7.14943991
_cell_angle_alpha   90.00000000
_cell_angle_beta   90.00000000
_cell_angle_gamma   90.00000000
_symmetry_Int_Tables_number   1
_chemical_formula_structural   P(HO)3
_chemical_formula_sum   'P8 H24 O24'
_cell_volume   639.33231901
_cell_formula_units_Z   8
loop_
 _symmetry_equiv_pos_site_id
 _symmetry_equiv_pos_as_xyz
  1  'x, y, z'
loop_
 _atom_site_type_symbol
 _atom_site_label
 _atom_site_symmetry_multiplicity
 _atom_site_fract_x
 _atom_site_fract_y
 _atom_site_fract_z
 _atom_site_occupancy
  P  P0  1  0.51105644  0.38591113  0.03341981  1
  P  P1  1  0.48894356  0.61408887  0.53341981  1
  P  P2  1  0.98894356  0.88591113  0.53341981  1
  P  P3  1  0.01105644  0.11408887  0.03341981  1
  P  P4  1  0.57859799  0.13570070  0.46721964  1
  P  P5  1  0.42140201  0.86429930  0.96721964  1
  P  P6  1  0.92140201  0.63570070  0.96721964  1
  P  P7  1  0.07859799  0.36429930  0.46721964  1
  H  H8  1  0.73084463  0.41834547  0.82218518  1
  H  H9  1  0.26915537  0.58165453  0.32218518  1
  H  H10  1  0.76915537  0.91834547  0.32218518  1
  H  H11  1  0.23084463  0.08165453  0.82218518  1
  H  H12  1  0.33926615  0.24133076  0.93482459  1
  H  H13  1  0.66073385  0.75866924  0.43482459  1
  H  H14  1  0.16073385  0.74133076  0.43482459  1
  H  H15  1  0.83926615  0.25866924  0.93482459  1
  H  H16  1  0.50888461  0.57522613  0.96999671  1
  H  H17  1  0.49111539  0.42477387  0.46999671  1
  H  H18  1  0.99111539  0.07522613  0.46999671  1
  H  H19  1  0.00888461  0.92477387  0.96999671  1
  H  H20  1  0.46042818  0.26900527  0.65278652  1
  H  H21  1  0.53957182  0.73099473  0.15278652  1
  H  H22  1  0.03957182  0.76900527  0.15278652  1
  H  H23  1  0.96042818  0.23099473  0.65278652  1
  H  H24  1  0.55942184  0.08062116  0.16488178  1
  H  H25  1  0.44057816  0.91937884  0.66488178  1
  H  H26  1  0.94057816  0.58062116  0.66488178  1
  H  H27  1  0.05942184  0.41937884  0.16488178  1
  H  H28  1  0.30542428  0.04339889  0.45307219  1
  H  H29  1  0.69457572  0.95660111  0.95307219  1
  H  H30  1  0.19457572  0.54339889  0.95307219  1
  H  H31  1  0.80542428  0.45660111  0.45307219  1
  O  O32  1  0.71646315  0.38224541  0.94531512  1
  O  O33  1  0.28353685  0.61775459  0.44531512  1
  O  O34  1  0.78353685  0.88224541  0.44531512  1
  O  O35  1  0.21646315  0.11775459  0.94531512  1
  O  O36  1  0.40437960  0.30687291  0.88091491  1
  O  O37  1  0.59562040  0.69312709  0.38091491  1
  O  O38  1  0.09562040  0.80687291  0.38091491  1
  O  O39  1  0.90437960  0.19312709  0.88091491  1
  O  O40  1  0.44230104  0.50605258  0.93779497  1
  O  O41  1  0.55769896  0.49394742  0.43779497  1
  O  O42  1  0.05769896  0.00605258  0.43779497  1
  O  O43  1  0.94230104  0.99394742  0.93779497  1
  O  O44  1  0.47649813  0.25540202  0.51620778  1
  O  O45  1  0.52350187  0.74459798  0.01620778  1
  O  O46  1  0.02350187  0.75540202  0.01620778  1
  O  O47  1  0.97649813  0.24459798  0.51620778  1
  O  O48  1  0.56078403  0.15117753  0.24087503  1
  O  O49  1  0.43921597  0.84882247  0.74087503  1
  O  O50  1  0.93921597  0.65117753  0.74087503  1
  O  O51  1  0.06078403  0.34882247  0.24087503  1
  O  O52  1  0.42282118  0.03942820  0.51500875  1
  O  O53  1  0.57717882  0.96057180  0.01500875  1
  O  O54  1  0.07717882  0.53942820  0.01500875  1
  O  O55  1  0.92282118  0.46057180  0.51500875  1
