# generated using pymatgen
data_Mg2PN3
_symmetry_space_group_name_H-M   'P 1'
_cell_length_a   4.76123452
_cell_length_b   5.65987907
_cell_length_c   5.65987907
_cell_angle_alpha   119.60689791
_cell_angle_beta   90.00000000
_cell_angle_gamma   90.00000000
_symmetry_Int_Tables_number   1
_chemical_formula_structural   Mg2PN3
_chemical_formula_sum   'Mg4 P2 N6'
_cell_volume   132.60845797
_cell_formula_units_Z   2
loop_
 _symmetry_equiv_pos_site_id
 _symmetry_equiv_pos_as_xyz
  1  'x, y, z'
loop_
 _atom_site_type_symbol
 _atom_site_label
 _atom_site_symmetry_multiplicity
 _atom_site_fract_x
 _atom_site_fract_y
 _atom_site_fract_z
 _atom_site_occupancy
  N  N0  1  0.34457011  0.89048701  0.89048701  1
  N  N1  1  0.84457011  0.10951299  0.10951299  1
  N  N2  1  0.41973940  0.16245090  0.44336554  1
  N  N3  1  0.91973940  0.83754910  0.55663446  1
  N  N4  1  0.41973940  0.44336554  0.16245090  1
  N  N5  1  0.91973940  0.55663446  0.83754910  1
  Mg  Mg6  1  0.47226801  0.82919806  0.50291389  1
  Mg  Mg7  1  0.47226801  0.50291389  0.82919806  1
  Mg  Mg8  1  0.97226801  0.17080194  0.49708611  1
  Mg  Mg9  1  0.97226801  0.49708611  0.17080194  1
  P  P10  1  0.49131507  0.16166308  0.16166308  1
  P  P11  1  0.99131507  0.83833692  0.83833692  1
