# generated using pymatgen
data_LiBi3(PO5)2
_symmetry_space_group_name_H-M   'P 1'
_cell_length_a   6.74580571
_cell_length_b   7.35545456
_cell_length_c   5.65129879
_cell_angle_alpha   62.23422214
_cell_angle_beta   100.50624243
_cell_angle_gamma   113.72471784
_symmetry_Int_Tables_number   1
_chemical_formula_structural   LiBi3(PO5)2
_chemical_formula_sum   'Li1 Bi3 P2 O10'
_cell_volume   227.14881570
_cell_formula_units_Z   1
loop_
 _symmetry_equiv_pos_site_id
 _symmetry_equiv_pos_as_xyz
  1  'x, y, z'
loop_
 _atom_site_type_symbol
 _atom_site_label
 _atom_site_symmetry_multiplicity
 _atom_site_fract_x
 _atom_site_fract_y
 _atom_site_fract_z
 _atom_site_occupancy
  Li  Li0  1  0.49021503  0.90503242  0.87555919  1
  O  O1  1  0.30900281  0.74468033  0.61515733  1
  O  O2  1  0.96171582  0.57454823  0.88716185  1
  O  O3  1  0.71994018  0.98355267  0.18720462  1
  O  O4  1  0.05172525  0.35615645  0.69881758  1
  O  O5  1  0.49204725  0.23062596  0.57110682  1
  O  O6  1  0.75352323  0.93461574  0.72182734  1
  O  O7  1  0.41257770  0.57304242  0.23260221  1
  O  O8  1  0.13361510  0.19118062  0.31118639  1
  O  O9  1  0.48579969  0.32705835  0.07923930  1
  O  O10  1  0.92731711  0.66390774  0.40354525  1
  P  P11  1  0.06905210  0.58682746  0.65883450  1
  P  P12  1  0.38241106  0.33286005  0.30093889  1
  Bi  Bi13  1  0.81370074  0.24976847  0.32827491  1
  Bi  Bi14  1  0.60519337  0.65477046  0.59272616  1
  Bi  Bi15  1  0.00258455  1.00347264  0.02011767  1
