# generated using pymatgen
data_KTa(CuSe2)2
_symmetry_space_group_name_H-M   'P 1'
_cell_length_a   5.72559256
_cell_length_b   7.81533255
_cell_length_c   10.05068427
_cell_angle_alpha   90.00000000
_cell_angle_beta   106.54904328
_cell_angle_gamma   90.00000000
_symmetry_Int_Tables_number   1
_chemical_formula_structural   KTa(CuSe2)2
_chemical_formula_sum   'K2 Ta2 Cu4 Se8'
_cell_volume   431.11209704
_cell_formula_units_Z   2
loop_
 _symmetry_equiv_pos_site_id
 _symmetry_equiv_pos_as_xyz
  1  'x, y, z'
loop_
 _atom_site_type_symbol
 _atom_site_label
 _atom_site_symmetry_multiplicity
 _atom_site_fract_x
 _atom_site_fract_y
 _atom_site_fract_z
 _atom_site_occupancy
  K  K0  1  0.44745524  0.75000000  0.36822433  1
  K  K1  1  0.07923090  0.25000000  0.63177567  1
  Cu  Cu2  1  0.10660461  0.25000000  0.21342782  1
  Cu  Cu3  1  0.89317679  0.75000000  0.78657218  1
  Cu  Cu4  1  0.51599439  0.50000000  0.00000000  1
  Cu  Cu5  1  0.51599439  0.00000000  0.00000000  1
  Se  Se6  1  0.25660792  0.25000000  0.00607745  1
  Se  Se7  1  0.25053047  0.75000000  0.99392255  1
  Se  Se8  1  0.46208122  0.25000000  0.42022194  1
  Se  Se9  1  0.04185928  0.75000000  0.57977806  1
  Se  Se10  1  0.64015532  0.00467984  0.78563150  1
  Se  Se11  1  0.85452382  0.99532016  0.21436850  1
  Se  Se12  1  0.64015532  0.49532016  0.78563150  1
  Se  Se13  1  0.85452382  0.50467984  0.21436850  1
  Ta  Ta14  1  0.60848096  0.25000000  0.21665544  1
  Ta  Ta15  1  0.39182553  0.75000000  0.78334456  1
