# generated using pymatgen
data_CrO3
_symmetry_space_group_name_H-M   'P 1'
_cell_length_a   5.13728019
_cell_length_b   5.34933550
_cell_length_c   5.82189624
_cell_angle_alpha   90.00000000
_cell_angle_beta   90.00000000
_cell_angle_gamma   118.69711209
_symmetry_Int_Tables_number   1
_chemical_formula_structural   CrO3
_chemical_formula_sum   'Cr2 O6'
_cell_volume   140.34001001
_cell_formula_units_Z   2
loop_
 _symmetry_equiv_pos_site_id
 _symmetry_equiv_pos_as_xyz
  1  'x, y, z'
loop_
 _atom_site_type_symbol
 _atom_site_label
 _atom_site_symmetry_multiplicity
 _atom_site_fract_x
 _atom_site_fract_y
 _atom_site_fract_z
 _atom_site_occupancy
  O  O0  1  0.87546494  0.80060469  0.25000000  1
  O  O1  1  0.07486024  0.19939531  0.75000000  1
  O  O2  1  0.55954939  0.00000000  0.00000000  1
  O  O3  1  0.55954939  0.00000000  0.50000000  1
  O  O4  1  0.79622143  0.49456643  0.75000000  1
  O  O5  1  0.30165499  0.50543357  0.25000000  1
  Cr  Cr6  1  0.57622728  0.81975493  0.25000000  1
  Cr  Cr7  1  0.75647235  0.18024507  0.75000000  1
