# generated using pymatgen
data_K2MnH4(Cl2O)2
_symmetry_space_group_name_H-M   'P 1'
_cell_length_a   6.70700335
_cell_length_b   6.70700381
_cell_length_c   6.70700364
_cell_angle_alpha   102.68998942
_cell_angle_beta   112.96458353
_cell_angle_gamma   112.96458868
_symmetry_Int_Tables_number   1
_chemical_formula_structural   K2MnH4(Cl2O)2
_chemical_formula_sum   'K2 Mn1 H4 Cl4 O2'
_cell_volume   229.85427077
_cell_formula_units_Z   1
loop_
 _symmetry_equiv_pos_site_id
 _symmetry_equiv_pos_as_xyz
  1  'x, y, z'
loop_
 _atom_site_type_symbol
 _atom_site_label
 _atom_site_symmetry_multiplicity
 _atom_site_fract_x
 _atom_site_fract_y
 _atom_site_fract_z
 _atom_site_occupancy
  K  K0  1  0.50000000  0.25000000  0.75000000  1
  K  K1  1  0.50000000  0.75000000  0.25000000  1
  Mn  Mn2  1  0.00000000  0.00000000  0.00000000  1
  H  H3  1  0.15115822  0.40950692  0.40950692  1
  H  H4  1  1.00000000  0.59049308  0.74165130  1
  H  H5  1  1.00000000  0.74165130  0.59049308  1
  H  H6  1  0.84884178  0.25834870  0.25834870  1
  Cl  Cl7  1  0.00000000  0.76232574  0.24945779  1
  Cl  Cl8  1  0.51286795  0.75054221  0.75054221  1
  Cl  Cl9  1  0.48713205  0.23767426  0.23767426  1
  Cl  Cl10  1  0.00000000  0.24945779  0.76232574  1
  O  O11  1  0.00000000  0.73651004  0.73651004  1
  O  O12  1  1.00000000  0.26348996  0.26348996  1
