# generated using pymatgen
data_Ba2VN3
_symmetry_space_group_name_H-M   'P 1'
_cell_length_a   5.93961640
_cell_length_b   6.57357328
_cell_length_c   13.08796989
_cell_angle_alpha   90.00000000
_cell_angle_beta   90.00000000
_cell_angle_gamma   116.85793719
_symmetry_Int_Tables_number   1
_chemical_formula_structural   Ba2VN3
_chemical_formula_sum   'Ba8 V4 N12'
_cell_volume   455.88999722
_cell_formula_units_Z   4
loop_
 _symmetry_equiv_pos_site_id
 _symmetry_equiv_pos_as_xyz
  1  'x, y, z'
loop_
 _atom_site_type_symbol
 _atom_site_label
 _atom_site_symmetry_multiplicity
 _atom_site_fract_x
 _atom_site_fract_y
 _atom_site_fract_z
 _atom_site_occupancy
  N  N0  1  0.52429851  0.54859703  0.75000000  1
  N  N1  1  0.97570149  0.45140297  0.25000000  1
  N  N2  1  0.47570149  0.45140297  0.25000000  1
  N  N3  1  0.02429851  0.54859703  0.75000000  1
  N  N4  1  0.59501869  0.19003737  0.86646962  1
  N  N5  1  0.40498131  0.80996263  0.13353038  1
  N  N6  1  0.90498131  0.80996263  0.36646962  1
  N  N7  1  0.33315872  0.66631744  0.55720267  1
  N  N8  1  0.83315872  0.66631744  0.94279733  1
  N  N9  1  0.16684128  0.33368256  0.05720267  1
  N  N10  1  0.66684128  0.33368256  0.44279733  1
  N  N11  1  0.09501869  0.19003737  0.63353038  1
  V  V12  1  0.24371880  0.48743760  0.66762035  1
  V  V13  1  0.25628120  0.51256240  0.16762035  1
  V  V14  1  0.75628120  0.51256240  0.33237965  1
  V  V15  1  0.74371880  0.48743760  0.83237965  1
  Ba  Ba16  1  0.14163336  0.28326673  0.42176825  1
  Ba  Ba17  1  0.64163336  0.28326673  0.07823175  1
  Ba  Ba18  1  0.35836664  0.71673327  0.92176825  1
  Ba  Ba19  1  0.85836664  0.71673327  0.57823175  1
  Ba  Ba20  1  0.55630105  0.11260210  0.64506138  1
  Ba  Ba21  1  0.44369895  0.88739790  0.35493862  1
  Ba  Ba22  1  0.94369895  0.88739790  0.14506138  1
  Ba  Ba23  1  0.05630105  0.11260210  0.85493862  1
