# generated using pymatgen
data_H4CSN2
_symmetry_space_group_name_H-M   'P 1'
_cell_length_a   7.50470262
_cell_length_b   8.52881999
_cell_length_c   5.49760599
_cell_angle_alpha   90.00000000
_cell_angle_beta   90.00000000
_cell_angle_gamma   90.00000000
_symmetry_Int_Tables_number   1
_chemical_formula_structural   H4CSN2
_chemical_formula_sum   'H8 C2 S2 N4'
_cell_volume   351.88118586
_cell_formula_units_Z   2
loop_
 _symmetry_equiv_pos_site_id
 _symmetry_equiv_pos_as_xyz
  1  'x, y, z'
loop_
 _atom_site_type_symbol
 _atom_site_label
 _atom_site_symmetry_multiplicity
 _atom_site_fract_x
 _atom_site_fract_y
 _atom_site_fract_z
 _atom_site_occupancy
  H  H0  1  0.63696081  0.13080586  0.25304764  1
  H  H1  1  0.63696081  0.86919414  0.25304764  1
  H  H2  1  0.13696081  0.86919414  0.74695236  1
  H  H3  1  0.13696081  0.13080586  0.74695236  1
  H  H4  1  0.57691237  0.23763893  0.99313773  1
  H  H5  1  0.57691237  0.76236107  0.99313773  1
  H  H6  1  0.07691237  0.76236107  0.00686227  1
  H  H7  1  0.07691237  0.23763893  0.00686227  1
  C  C8  1  0.57256540  0.00000000  0.94868541  1
  C  C9  1  0.07256540  0.00000000  0.05131459  1
  S  S10  1  0.50555584  0.00000000  0.65473802  1
  S  S11  1  0.00555584  0.00000000  0.34526198  1
  N  N12  1  0.60016620  0.13360213  0.07472441  1
  N  N13  1  0.60016620  0.86639787  0.07472441  1
  N  N14  1  0.10016620  0.86639787  0.92527559  1
  N  N15  1  0.10016620  0.13360213  0.92527559  1
