# generated using pymatgen
data_Ca2B2O5
_symmetry_space_group_name_H-M   'P 1'
_cell_length_a   3.59473841
_cell_length_b   6.39858389
_cell_length_c   19.38930266
_cell_angle_alpha   90.00000000
_cell_angle_beta   90.00000000
_cell_angle_gamma   90.00000000
_symmetry_Int_Tables_number   1
_chemical_formula_structural   Ca2B2O5
_chemical_formula_sum   'Ca8 B8 O20'
_cell_volume   445.97791238
_cell_formula_units_Z   4
loop_
 _symmetry_equiv_pos_site_id
 _symmetry_equiv_pos_as_xyz
  1  'x, y, z'
loop_
 _atom_site_type_symbol
 _atom_site_label
 _atom_site_symmetry_multiplicity
 _atom_site_fract_x
 _atom_site_fract_y
 _atom_site_fract_z
 _atom_site_occupancy
  Ca  Ca0  1  0.70298645  0.70180902  0.29010817  1
  Ca  Ca1  1  0.79701355  0.29819098  0.79010817  1
  Ca  Ca2  1  0.20298645  0.79819098  0.70989183  1
  Ca  Ca3  1  0.29701355  0.20180902  0.20989183  1
  Ca  Ca4  1  0.20277057  0.94542444  0.43844149  1
  Ca  Ca5  1  0.29722943  0.05457556  0.93844149  1
  Ca  Ca6  1  0.70277057  0.55457556  0.56155851  1
  Ca  Ca7  1  0.79722943  0.44542444  0.06155851  1
  B  B8  1  0.81490800  0.21837942  0.34333531  1
  B  B9  1  0.68509200  0.78162058  0.84333531  1
  B  B10  1  0.31490800  0.28162058  0.65666469  1
  B  B11  1  0.18509200  0.71837942  0.15666469  1
  B  B12  1  0.85788253  0.00297166  0.08236787  1
  B  B13  1  0.64211747  0.99702834  0.58236787  1
  B  B14  1  0.35788253  0.49702834  0.91763213  1
  B  B15  1  0.14211747  0.50297166  0.41763213  1
  O  O16  1  0.20003109  0.55572723  0.48500486  1
  O  O17  1  0.29996891  0.44427277  0.98500486  1
  O  O18  1  0.70003109  0.94427277  0.51499514  1
  O  O19  1  0.79996891  0.05572723  0.01499514  1
  O  O20  1  0.20415529  0.64376213  0.36570460  1
  O  O21  1  0.29584471  0.35623787  0.86570460  1
  O  O22  1  0.70415529  0.85623787  0.63429540  1
  O  O23  1  0.79584471  0.14376213  0.13429540  1
  O  O24  1  0.68724370  0.01860975  0.35242638  1
  O  O25  1  0.81275630  0.98139025  0.85242638  1
  O  O26  1  0.18724370  0.48139025  0.64757362  1
  O  O27  1  0.31275630  0.51860975  0.14757362  1
  O  O28  1  0.99646065  0.30064507  0.40340509  1
  O  O29  1  0.50353935  0.69935493  0.90340509  1
  O  O30  1  0.49646065  0.19935493  0.59659491  1
  O  O31  1  0.00353935  0.80064507  0.09659491  1
  O  O32  1  0.79082410  0.32727215  0.28271910  1
  O  O33  1  0.70917590  0.67272785  0.78271910  1
  O  O34  1  0.29082410  0.17272785  0.71728090  1
  O  O35  1  0.20917590  0.82727215  0.21728090  1
