# generated using pymatgen
data_Na3As
_symmetry_space_group_name_H-M   'P 1'
_cell_length_a   8.84174242
_cell_length_b   8.84174242
_cell_length_c   9.05778165
_cell_angle_alpha   90.00000000
_cell_angle_beta   90.00000000
_cell_angle_gamma   120.00000000
_symmetry_Int_Tables_number   1
_chemical_formula_structural   Na3As
_chemical_formula_sum   'Na18 As6'
_cell_volume   613.23678271
_cell_formula_units_Z   6
loop_
 _symmetry_equiv_pos_site_id
 _symmetry_equiv_pos_as_xyz
  1  'x, y, z'
loop_
 _atom_site_type_symbol
 _atom_site_label
 _atom_site_symmetry_multiplicity
 _atom_site_fract_x
 _atom_site_fract_y
 _atom_site_fract_z
 _atom_site_occupancy
  Na  Na0  1  0.00000000  0.00000000  0.79218253  1
  Na  Na1  1  0.00000000  0.00000000  0.29218253  1
  Na  Na2  1  0.66666667  0.33333333  0.22833963  1
  Na  Na3  1  0.33333333  0.66666667  0.72833963  1
  Na  Na4  1  0.66666667  0.33333333  0.72833963  1
  Na  Na5  1  0.33333333  0.66666667  0.22833963  1
  Na  Na6  1  0.30113473  0.00000000  0.58087223  1
  Na  Na7  1  0.30113473  0.30113473  0.08087223  1
  Na  Na8  1  0.00000000  0.69886527  0.08087223  1
  Na  Na9  1  0.00000000  0.30113473  0.58087223  1
  Na  Na10  1  0.69886527  0.69886527  0.58087223  1
  Na  Na11  1  0.69886527  0.00000000  0.08087223  1
  Na  Na12  1  0.36096631  0.00000000  0.92028272  1
  Na  Na13  1  0.36096631  0.36096631  0.42028272  1
  Na  Na14  1  0.00000000  0.63903369  0.42028272  1
  Na  Na15  1  0.00000000  0.36096631  0.92028272  1
  Na  Na16  1  0.63903369  0.63903369  0.92028272  1
  Na  Na17  1  0.63903369  0.00000000  0.42028272  1
  As  As18  1  0.66891032  0.00000000  0.75082445  1
  As  As19  1  0.66891032  0.66891032  0.25082445  1
  As  As20  1  0.00000000  0.33108968  0.25082445  1
  As  As21  1  0.00000000  0.66891032  0.75082445  1
  As  As22  1  0.33108968  0.33108968  0.75082445  1
  As  As23  1  0.33108968  0.00000000  0.25082445  1
