# generated using pymatgen
data_La3CuSnS7
_symmetry_space_group_name_H-M   'P 1'
_cell_length_a   10.35529305
_cell_length_b   10.35529297
_cell_length_c   6.10528342
_cell_angle_alpha   90.00000000
_cell_angle_beta   90.00000000
_cell_angle_gamma   120.00000025
_symmetry_Int_Tables_number   1
_chemical_formula_structural   La3CuSnS7
_chemical_formula_sum   'La6 Cu2 Sn2 S14'
_cell_volume   566.97152017
_cell_formula_units_Z   2
loop_
 _symmetry_equiv_pos_site_id
 _symmetry_equiv_pos_as_xyz
  1  'x, y, z'
loop_
 _atom_site_type_symbol
 _atom_site_label
 _atom_site_symmetry_multiplicity
 _atom_site_fract_x
 _atom_site_fract_y
 _atom_site_fract_z
 _atom_site_occupancy
  La  La0  1  0.22285917  0.35614518  0.75668996  1
  La  La1  1  0.86671399  0.22285917  0.25668996  1
  La  La2  1  0.35614518  0.13328601  0.25668996  1
  La  La3  1  0.64385482  0.86671399  0.75668996  1
  La  La4  1  0.13328601  0.77714083  0.75668996  1
  La  La5  1  0.77714083  0.64385482  0.25668996  1
  Cu  Cu6  1  0.00000000  0.00000000  0.71871240  1
  Cu  Cu7  1  0.00000000  0.00000000  0.21871240  1
  Sn  Sn8  1  0.33333300  0.66666700  0.33185403  1
  Sn  Sn9  1  0.66666700  0.33333300  0.83185403  1
  S  S10  1  0.33333300  0.66666700  0.94257265  1
  S  S11  1  0.66666700  0.33333300  0.44257265  1
  S  S12  1  0.90496054  0.15486615  0.73143213  1
  S  S13  1  0.75009439  0.90496054  0.23143213  1
  S  S14  1  0.15486615  0.24990561  0.23143213  1
  S  S15  1  0.84513385  0.75009439  0.73143213  1
  S  S16  1  0.24990561  0.09503946  0.73143213  1
  S  S17  1  0.09503946  0.84513385  0.23143213  1
  S  S18  1  0.42512671  0.90943235  0.49916488  1
  S  S19  1  0.51569435  0.42512671  0.99916488  1
  S  S20  1  0.90943235  0.48430565  0.99916488  1
  S  S21  1  0.09056765  0.51569435  0.49916488  1
  S  S22  1  0.48430565  0.57487329  0.49916488  1
  S  S23  1  0.57487329  0.09056765  0.99916488  1
