# generated using pymatgen
data_Rb2Pd3S4
_symmetry_space_group_name_H-M   'P 1'
_cell_length_a   6.27142622
_cell_length_b   6.24687436
_cell_length_c   7.41485001
_cell_angle_alpha   102.55155359
_cell_angle_beta   102.69362230
_cell_angle_gamma   118.83422578
_symmetry_Int_Tables_number   1
_chemical_formula_structural   Rb2Pd3S4
_chemical_formula_sum   'Rb2 Pd3 S4'
_cell_volume   229.80634684
_cell_formula_units_Z   1
loop_
 _symmetry_equiv_pos_site_id
 _symmetry_equiv_pos_as_xyz
  1  'x, y, z'
loop_
 _atom_site_type_symbol
 _atom_site_label
 _atom_site_symmetry_multiplicity
 _atom_site_fract_x
 _atom_site_fract_y
 _atom_site_fract_z
 _atom_site_occupancy
  Rb  Rb0  1  0.15864631  0.15864814  0.31730048  1
  Rb  Rb1  1  0.84135369  0.84135186  0.68269952  1
  Pd  Pd2  1  0.50000000  0.50000000  0.00000000  1
  Pd  Pd3  1  0.50000000  -0.00000000  0.00000000  1
  Pd  Pd4  1  -0.00000000  0.50000000  0.00000000  1
  S  S5  1  0.78335320  0.44718894  0.22929578  1
  S  S6  1  0.21664680  0.55281106  0.77070422  1
  S  S7  1  0.55405228  0.21787843  0.77069767  1
  S  S8  1  0.44594772  0.78212157  0.22930233  1
