# generated using pymatgen
data_BaAl2Si3(NO)4
_symmetry_space_group_name_H-M   'P 1'
_cell_length_a   5.77611991
_cell_length_b   7.41806067
_cell_length_c   9.57923084
_cell_angle_alpha   90.00000000
_cell_angle_beta   90.00000000
_cell_angle_gamma   112.91270233
_symmetry_Int_Tables_number   1
_chemical_formula_structural   BaAl2Si3(NO)4
_chemical_formula_sum   'Ba2 Al4 Si6 N8 O8'
_cell_volume   378.06248581
_cell_formula_units_Z   2
loop_
 _symmetry_equiv_pos_site_id
 _symmetry_equiv_pos_as_xyz
  1  'x, y, z'
loop_
 _atom_site_type_symbol
 _atom_site_label
 _atom_site_symmetry_multiplicity
 _atom_site_fract_x
 _atom_site_fract_y
 _atom_site_fract_z
 _atom_site_occupancy
  Ba  Ba0  1  0.98328998  0.96657996  0.50099678  1
  Ba  Ba1  1  0.01671002  0.03342004  0.00099678  1
  Al  Al2  1  0.47345385  0.94690770  0.25493404  1
  Al  Al3  1  0.52654615  0.05309230  0.75493404  1
  Al  Al4  1  0.28718740  0.57437481  0.03903364  1
  Al  Al5  1  0.71281260  0.42562519  0.53903364  1
  Si  Si6  1  0.29761837  0.59523675  0.48617640  1
  Si  Si7  1  0.70238163  0.40476325  0.98617640  1
  Si  Si8  1  0.91740949  0.34652088  0.26146006  1
  Si  Si9  1  0.42911139  0.34652088  0.26146006  1
  Si  Si10  1  0.08259051  0.65347912  0.76146006  1
  Si  Si11  1  0.57088861  0.65347912  0.76146006  1
  N  N12  1  0.20758089  0.41516179  0.35108740  1
  N  N13  1  0.79241911  0.58483821  0.85108740  1
  N  N14  1  0.71194636  0.42389271  0.34586843  1
  N  N15  1  0.28805364  0.57610729  0.84586843  1
  N  N16  1  0.95681880  0.42189380  0.08915287  1
  N  N17  1  0.46507500  0.42189380  0.08915287  1
  N  N18  1  0.04318120  0.57810620  0.58915287  1
  N  N19  1  0.53492500  0.57810620  0.58915287  1
  O  O20  1  0.80101623  0.09998619  0.25948498  1
  O  O21  1  0.29896996  0.09998619  0.25948498  1
  O  O22  1  0.19898377  0.90001381  0.75948498  1
  O  O23  1  0.70103004  0.90001381  0.75948498  1
  O  O24  1  0.40647176  0.81294351  0.41120931  1
  O  O25  1  0.59352824  0.18705649  0.91120931  1
  O  O26  1  0.40631549  0.81263097  0.10279820  1
  O  O27  1  0.59368451  0.18736903  0.60279820  1
