# generated using pymatgen
data_LiFe3(OF3)2
_symmetry_space_group_name_H-M   'P 1'
_cell_length_a   5.35671325
_cell_length_b   6.04957989
_cell_length_c   5.27375372
_cell_angle_alpha   88.11195432
_cell_angle_beta   78.23766749
_cell_angle_gamma   71.13999345
_symmetry_Int_Tables_number   1
_chemical_formula_structural   LiFe3(OF3)2
_chemical_formula_sum   'Li1 Fe3 O2 F6'
_cell_volume   158.22897124
_cell_formula_units_Z   1
loop_
 _symmetry_equiv_pos_site_id
 _symmetry_equiv_pos_as_xyz
  1  'x, y, z'
loop_
 _atom_site_type_symbol
 _atom_site_label
 _atom_site_symmetry_multiplicity
 _atom_site_fract_x
 _atom_site_fract_y
 _atom_site_fract_z
 _atom_site_occupancy
  Li  Li0  1  0.97909855  0.00545664  0.99041778  1
  Fe  Fe1  1  0.49304630  0.12150301  0.73954980  1
  Fe  Fe2  1  0.48303062  0.87270592  0.25676638  1
  Fe  Fe3  1  0.53861363  0.62430210  0.75306138  1
  O  O4  1  0.30518836  0.92354508  0.62558768  1
  O  O5  1  0.70200462  0.83497104  0.89690308  1
  F  F6  1  0.24535026  0.15298515  0.09887182  1
  F  F7  1  0.28039539  0.70369987  0.10399003  1
  F  F8  1  0.30326583  0.44513696  0.67233216  1
  F  F9  1  0.70237298  0.05772438  0.36349778  1
  F  F10  1  0.73365530  0.29339538  0.84480453  1
  F  F11  1  0.72243917  0.58287047  0.38637659  1
