# generated using pymatgen
data_Ca2BeSi2O7
_symmetry_space_group_name_H-M   'P 1'
_cell_length_a   5.04397925
_cell_length_b   7.48500862
_cell_length_c   7.48500862
_cell_angle_alpha   90.00000000
_cell_angle_beta   90.00000000
_cell_angle_gamma   90.00000000
_symmetry_Int_Tables_number   1
_chemical_formula_structural   Ca2BeSi2O7
_chemical_formula_sum   'Ca4 Be2 Si4 O14'
_cell_volume   282.59072326
_cell_formula_units_Z   2
loop_
 _symmetry_equiv_pos_site_id
 _symmetry_equiv_pos_as_xyz
  1  'x, y, z'
loop_
 _atom_site_type_symbol
 _atom_site_label
 _atom_site_symmetry_multiplicity
 _atom_site_fract_x
 _atom_site_fract_y
 _atom_site_fract_z
 _atom_site_occupancy
  Be  Be0  1  0.00000000  0.00000000  0.00000000  1
  Be  Be1  1  0.00000000  0.50000000  0.50000000  1
  O  O2  1  0.81980403  0.16447070  0.91322593  1
  O  O3  1  0.81980403  0.83552930  0.08677407  1
  O  O4  1  0.18019597  0.91322593  0.83552930  1
  O  O5  1  0.18019597  0.08677407  0.16447070  1
  O  O6  1  0.18019597  0.66447070  0.58677407  1
  O  O7  1  0.81980403  0.58677407  0.33552930  1
  O  O8  1  0.81980403  0.41322593  0.66447070  1
  O  O9  1  0.18019597  0.33552930  0.41322593  1
  O  O10  1  0.83332261  0.50000000  0.00000000  1
  O  O11  1  0.16667739  0.00000000  0.50000000  1
  O  O12  1  0.28194055  0.35985368  0.85985368  1
  O  O13  1  0.71805945  0.85985368  0.64014632  1
  O  O14  1  0.71805945  0.14014632  0.35985368  1
  O  O15  1  0.28194055  0.64014632  0.14014632  1
  Si  Si16  1  0.96139274  0.64731876  0.14731876  1
  Si  Si17  1  0.03860726  0.14731876  0.35268124  1
  Si  Si18  1  0.03860726  0.85268124  0.64731876  1
  Si  Si19  1  0.96139274  0.35268124  0.85268124  1
  Ca  Ca20  1  0.51455202  0.83556679  0.33556679  1
  Ca  Ca21  1  0.48544798  0.33556679  0.16443321  1
  Ca  Ca22  1  0.48544798  0.66443321  0.83556679  1
  Ca  Ca23  1  0.51455202  0.16443321  0.66443321  1
