# generated using pymatgen
data_FeTeCl7
_symmetry_space_group_name_H-M   'P 1'
_cell_length_a   6.78946818
_cell_length_b   8.67103676
_cell_length_c   10.33099951
_cell_angle_alpha   85.12470811
_cell_angle_beta   76.94683261
_cell_angle_gamma   83.24231100
_symmetry_Int_Tables_number   1
_chemical_formula_structural   FeTeCl7
_chemical_formula_sum   'Fe2 Te2 Cl14'
_cell_volume   587.29865924
_cell_formula_units_Z   2
loop_
 _symmetry_equiv_pos_site_id
 _symmetry_equiv_pos_as_xyz
  1  'x, y, z'
loop_
 _atom_site_type_symbol
 _atom_site_label
 _atom_site_symmetry_multiplicity
 _atom_site_fract_x
 _atom_site_fract_y
 _atom_site_fract_z
 _atom_site_occupancy
  Fe  Fe0  1  0.49587618  0.12366024  0.12385591  1
  Fe  Fe1  1  0.74832641  0.55369753  0.56379057  1
  Te  Te2  1  0.94798069  0.49264128  0.09571106  1
  Te  Te3  1  0.20001869  0.92261481  0.54327881  1
  Cl  Cl4  1  0.81788696  0.18280579  0.07008757  1
  Cl  Cl5  1  0.29142820  0.32869410  0.20831553  1
  Cl  Cl6  1  0.48111266  0.92518017  0.27868785  1
  Cl  Cl7  1  0.41138781  0.04834908  0.95256714  1
  Cl  Cl8  1  0.06361975  0.72758066  0.13054998  1
  Cl  Cl9  1  0.16413629  0.46327865  0.88650675  1
  Cl  Cl10  1  0.67275308  0.61377004  0.01028172  1
  Cl  Cl11  1  0.07147530  0.60737229  0.52198900  1
  Cl  Cl12  1  0.54209153  0.75339413  0.65738554  1
  Cl  Cl13  1  0.66985815  0.50400926  0.37424449  1
  Cl  Cl14  1  0.71138169  0.35228372  0.70082947  1
  Cl  Cl15  1  0.32302806  0.15703415  0.56878997  1
  Cl  Cl16  1  0.99367079  0.91873897  0.75818774  1
  Cl  Cl17  1  0.94096775  0.03399513  0.43734090  1
