# generated using pymatgen
data_Sr5(AuO4)2
_symmetry_space_group_name_H-M   'P 1'
_cell_length_a   6.61166636
_cell_length_b   6.80955308
_cell_length_c   6.81041523
_cell_angle_alpha   76.36998772
_cell_angle_beta   60.96076279
_cell_angle_gamma   60.95673517
_symmetry_Int_Tables_number   1
_chemical_formula_structural   Sr5(AuO4)2
_chemical_formula_sum   'Sr5 Au2 O8'
_cell_volume   234.36605730
_cell_formula_units_Z   1
loop_
 _symmetry_equiv_pos_site_id
 _symmetry_equiv_pos_as_xyz
  1  'x, y, z'
loop_
 _atom_site_type_symbol
 _atom_site_label
 _atom_site_symmetry_multiplicity
 _atom_site_fract_x
 _atom_site_fract_y
 _atom_site_fract_z
 _atom_site_occupancy
  O  O0  1  0.75501726  0.75540305  0.75545768  1
  O  O1  1  0.26587799  0.24459695  0.24454232  1
  O  O2  1  0.48957969  0.75540305  0.24454232  1
  O  O3  1  0.48952506  0.24459695  0.75545768  1
  O  O4  1  0.01036825  0.24457114  0.75545245  1
  O  O5  1  0.01039184  0.75542886  0.24454755  1
  O  O6  1  0.74506061  0.24457114  0.24454755  1
  O  O7  1  0.23417930  0.75542886  0.75545245  1
  Sr  Sr8  1  0.52858377  0.50000000  0.94283246  1
  Sr  Sr9  1  0.97141623  0.50000000  0.05716754  1
  Sr  Sr10  1  0.97130961  0.05738078  0.50000000  1
  Sr  Sr11  1  0.52869039  0.94261922  0.50000000  1
  Sr  Sr12  1  0.25000000  0.50000000  0.50000000  1
  Au  Au13  1  0.50000000  0.00000000  0.00000000  1
  Au  Au14  1  0.00000000  0.00000000  0.00000000  1
