# generated using pymatgen
data_NaLiSO4
_symmetry_space_group_name_H-M   'P 1'
_cell_length_a   7.76769060
_cell_length_b   7.76769060
_cell_length_c   9.95878376
_cell_angle_alpha   90.00000000
_cell_angle_beta   90.00000000
_cell_angle_gamma   119.99999999
_symmetry_Int_Tables_number   1
_chemical_formula_structural   NaLiSO4
_chemical_formula_sum   'Na6 Li6 S6 O24'
_cell_volume   520.38020921
_cell_formula_units_Z   6
loop_
 _symmetry_equiv_pos_site_id
 _symmetry_equiv_pos_as_xyz
  1  'x, y, z'
loop_
 _atom_site_type_symbol
 _atom_site_label
 _atom_site_symmetry_multiplicity
 _atom_site_fract_x
 _atom_site_fract_y
 _atom_site_fract_z
 _atom_site_occupancy
  Li  Li0  1  0.03376507  0.78753646  0.75990506  1
  Li  Li1  1  0.21246354  0.24622861  0.75990506  1
  Li  Li2  1  0.75377139  0.96623493  0.75990506  1
  Li  Li3  1  0.78753646  0.03376507  0.25990506  1
  Li  Li4  1  0.24622861  0.21246354  0.25990506  1
  Li  Li5  1  0.96623493  0.75377139  0.25990506  1
  O  O6  1  0.48133640  0.32277994  0.81513059  1
  O  O7  1  0.67722006  0.15855646  0.81513059  1
  O  O8  1  0.84144354  0.51866360  0.81513059  1
  O  O9  1  0.32277994  0.48133640  0.31513059  1
  O  O10  1  0.15855646  0.67722006  0.31513059  1
  O  O11  1  0.51866360  0.84144354  0.31513059  1
  O  O12  1  0.00000000  0.00000000  0.15200648  1
  O  O13  1  0.00000000  0.00000000  0.65200648  1
  O  O14  1  0.66666667  0.33333333  0.34670956  1
  O  O15  1  0.33333333  0.66666667  0.84670956  1
  O  O16  1  0.33333333  0.66666667  0.11469905  1
  O  O17  1  0.66666667  0.33333333  0.61469905  1
  O  O18  1  0.79131945  0.88825242  0.94965213  1
  O  O19  1  0.11174758  0.90306703  0.94965213  1
  O  O20  1  0.09693297  0.20868055  0.94965213  1
  O  O21  1  0.88825242  0.79131945  0.44965213  1
  O  O22  1  0.90306703  0.11174758  0.44965213  1
  O  O23  1  0.20868055  0.09693297  0.44965213  1
  O  O24  1  0.76841259  0.54190854  0.14557497  1
  O  O25  1  0.45809146  0.22650405  0.14557497  1
  O  O26  1  0.77349595  0.23158741  0.14557497  1
  O  O27  1  0.54190854  0.76841259  0.64557497  1
  O  O28  1  0.22650405  0.45809146  0.64557497  1
  O  O29  1  0.23158741  0.77349595  0.64557497  1
  Na  Na30  1  0.97399339  0.44824173  0.49024137  1
  Na  Na31  1  0.55175827  0.52575166  0.49024137  1
  Na  Na32  1  0.47424834  0.02600661  0.49024137  1
  Na  Na33  1  0.44824173  0.97399339  0.99024137  1
  Na  Na34  1  0.52575166  0.55175827  0.99024137  1
  Na  Na35  1  0.02600661  0.47424834  0.99024137  1
  S  S36  1  0.00000000  0.00000000  0.99929710  1
  S  S37  1  0.00000000  0.00000000  0.49929710  1
  S  S38  1  0.66666667  0.33333333  0.19758106  1
  S  S39  1  0.33333333  0.66666667  0.69758106  1
  S  S40  1  0.33333333  0.66666667  0.26419439  1
  S  S41  1  0.66666667  0.33333333  0.76419439  1
