# generated using pymatgen
data_H4CSN2
_symmetry_space_group_name_H-M   'P 1'
_cell_length_a   7.51884619
_cell_length_b   8.57748367
_cell_length_c   5.49704284
_cell_angle_alpha   90.00000000
_cell_angle_beta   90.00000000
_cell_angle_gamma   90.00000000
_symmetry_Int_Tables_number   1
_chemical_formula_structural   H4CSN2
_chemical_formula_sum   'H16 C4 S4 N8'
_cell_volume   354.51957680
_cell_formula_units_Z   4
loop_
 _symmetry_equiv_pos_site_id
 _symmetry_equiv_pos_as_xyz
  1  'x, y, z'
loop_
 _atom_site_type_symbol
 _atom_site_label
 _atom_site_symmetry_multiplicity
 _atom_site_fract_x
 _atom_site_fract_y
 _atom_site_fract_z
 _atom_site_occupancy
  H  H0  1  0.63683266  0.13054772  0.25207301  1
  H  H1  1  0.63683266  0.86945228  0.25207301  1
  H  H2  1  0.13683266  0.86945228  0.74792699  1
  H  H3  1  0.13683266  0.13054772  0.74792699  1
  H  H4  1  0.57663396  0.23937525  0.99356252  1
  H  H5  1  0.57663396  0.76062475  0.99356252  1
  H  H6  1  0.07663396  0.76062475  0.00643748  1
  H  H7  1  0.07663396  0.23937525  0.00643748  1
  H  H8  1  0.28248883  0.36960326  0.34894667  1
  H  H9  1  0.28248883  0.63039674  0.34894667  1
  H  H10  1  0.78248883  0.63039674  0.65105333  1
  H  H11  1  0.78248883  0.36960326  0.65105333  1
  H  H12  1  0.39756668  0.26105234  0.57307914  1
  H  H13  1  0.39756668  0.73894766  0.57307914  1
  H  H14  1  0.89756668  0.73894766  0.42692086  1
  H  H15  1  0.89756668  0.26105234  0.42692086  1
  C  C16  1  0.57360045  0.00000000  0.95301135  1
  C  C17  1  0.07360045  0.00000000  0.04698865  1
  C  C18  1  0.40280230  0.50000000  0.61394672  1
  C  C19  1  0.90280230  0.50000000  0.38605328  1
  S  S20  1  0.50627083  0.00000000  0.65409993  1
  S  S21  1  0.00627083  0.00000000  0.34590007  1
  S  S22  1  0.52627292  0.50000000  0.87684146  1
  S  S23  1  0.02627292  0.50000000  0.12315854  1
  N  N24  1  0.60007564  0.13322943  0.07389343  1
  N  N25  1  0.60007564  0.86677057  0.07389343  1
  N  N26  1  0.10007564  0.86677057  0.92610657  1
  N  N27  1  0.10007564  0.13322943  0.92610657  1
  N  N28  1  0.35277898  0.36609217  0.50817604  1
  N  N29  1  0.35277898  0.63390783  0.50817604  1
  N  N30  1  0.85277898  0.63390783  0.49182396  1
  N  N31  1  0.85277898  0.36609217  0.49182396  1
