# generated using pymatgen
data_KLiBeF4
_symmetry_space_group_name_H-M   'P 1'
_cell_length_a   5.13905442
_cell_length_b   5.13905441
_cell_length_c   8.74568504
_cell_angle_alpha   90.00000000
_cell_angle_beta   90.00000000
_cell_angle_gamma   119.99999994
_symmetry_Int_Tables_number   1
_chemical_formula_structural   KLiBeF4
_chemical_formula_sum   'K2 Li2 Be2 F8'
_cell_volume   200.02804834
_cell_formula_units_Z   2
loop_
 _symmetry_equiv_pos_site_id
 _symmetry_equiv_pos_as_xyz
  1  'x, y, z'
loop_
 _atom_site_type_symbol
 _atom_site_label
 _atom_site_symmetry_multiplicity
 _atom_site_fract_x
 _atom_site_fract_y
 _atom_site_fract_z
 _atom_site_occupancy
  Li  Li0  1  0.66666667  0.33333333  0.30320164  1
  Li  Li1  1  0.33333333  0.66666667  0.80320164  1
  Be  Be2  1  0.33333333  0.66666667  0.19549386  1
  Be  Be3  1  0.66666667  0.33333333  0.69549386  1
  F  F4  1  0.62063991  0.66256521  0.25098673  1
  F  F5  1  0.66256521  0.04192530  0.75098673  1
  F  F6  1  0.33333333  0.66666667  0.01618705  1
  F  F7  1  0.66666667  0.33333333  0.51618705  1
  F  F8  1  0.33743479  0.95807470  0.25098673  1
  F  F9  1  0.37936009  0.33743479  0.75098673  1
  F  F10  1  0.95807470  0.62063991  0.75098673  1
  F  F11  1  0.04192530  0.37936009  0.25098673  1
  K  K12  1  0.00000000  0.00000000  0.49815725  1
  K  K13  1  0.00000000  0.00000000  0.99815725  1
