# generated using pymatgen
data_YScS3
_symmetry_space_group_name_H-M   'P 1'
_cell_length_a   6.39816041
_cell_length_b   7.02682094
_cell_length_c   9.55025719
_cell_angle_alpha   90.00000000
_cell_angle_beta   90.00000000
_cell_angle_gamma   90.00000000
_symmetry_Int_Tables_number   1
_chemical_formula_structural   YScS3
_chemical_formula_sum   'Y4 Sc4 S12'
_cell_volume   429.36741100
_cell_formula_units_Z   4
loop_
 _symmetry_equiv_pos_site_id
 _symmetry_equiv_pos_as_xyz
  1  'x, y, z'
loop_
 _atom_site_type_symbol
 _atom_site_label
 _atom_site_symmetry_multiplicity
 _atom_site_fract_x
 _atom_site_fract_y
 _atom_site_fract_z
 _atom_site_occupancy
  S  S0  1  0.14388524  0.54740090  0.99101128  1
  S  S1  1  0.85611476  0.45259910  0.49101128  1
  S  S2  1  0.35611476  0.04740090  0.99101128  1
  S  S3  1  0.64388524  0.95259910  0.49101128  1
  S  S4  1  0.17640094  0.81530004  0.66998997  1
  S  S5  1  0.82359906  0.18469996  0.16998997  1
  S  S6  1  0.32359906  0.31530004  0.66998997  1
  S  S7  1  0.67640094  0.68469996  0.16998997  1
  S  S8  1  0.67656791  0.68484724  0.81205485  1
  S  S9  1  0.32343209  0.31515276  0.31205485  1
  S  S10  1  0.82343209  0.18484724  0.81205485  1
  S  S11  1  0.17656791  0.81515276  0.31205485  1
  Sc  Sc12  1  0.00007115  0.49998289  0.74102310  1
  Sc  Sc13  1  0.99992885  0.50001711  0.24102310  1
  Sc  Sc14  1  0.49992885  0.99998289  0.74102310  1
  Sc  Sc15  1  0.50007115  0.00001711  0.24102310  1
  Y  Y16  1  0.45902062  0.60104632  0.49092081  1
  Y  Y17  1  0.54097938  0.39895368  0.99092081  1
  Y  Y18  1  0.04097938  0.10104632  0.49092081  1
  Y  Y19  1  0.95902062  0.89895368  0.99092081  1
