# generated using pymatgen
data_Li2Ta2(OF2)3
_symmetry_space_group_name_H-M   'P 1'
_cell_length_a   5.67194110
_cell_length_b   5.67194075
_cell_length_c   21.27847564
_cell_angle_alpha   90.00000000
_cell_angle_beta   90.00000000
_cell_angle_gamma   120.00000203
_symmetry_Int_Tables_number   1
_chemical_formula_structural   Li2Ta2(OF2)3
_chemical_formula_sum   'Li6 Ta6 O9 F18'
_cell_volume   592.83595215
_cell_formula_units_Z   3
loop_
 _symmetry_equiv_pos_site_id
 _symmetry_equiv_pos_as_xyz
  1  'x, y, z'
loop_
 _atom_site_type_symbol
 _atom_site_label
 _atom_site_symmetry_multiplicity
 _atom_site_fract_x
 _atom_site_fract_y
 _atom_site_fract_z
 _atom_site_occupancy
  Li  Li0  1  0.44700336  0.45286785  0.14199333  1
  Li  Li1  1  0.99413552  0.54713215  0.52467267  1
  Li  Li2  1  0.45286785  0.44700336  0.85800667  1
  Li  Li3  1  0.54713215  0.99413552  0.47532733  1
  Li  Li4  1  0.55299664  0.00586448  0.19133967  1
  Li  Li5  1  0.00586448  0.55299664  0.80866033  1
  Ta  Ta6  1  0.78006366  0.11204968  0.04558781  1
  Ta  Ta7  1  0.66801398  0.88795032  0.62107819  1
  Ta  Ta8  1  0.21993634  0.33198602  0.28774519  1
  Ta  Ta9  1  0.88795032  0.66801398  0.37892181  1
  Ta  Ta10  1  0.33198602  0.21993634  0.71225481  1
  Ta  Ta11  1  0.11204968  0.78006366  0.95441219  1
  O  O12  1  0.09795206  0.00000000  0.33333300  1
  O  O13  1  0.90204794  0.90204794  0.00000000  1
  O  O14  1  0.50628367  0.58074652  0.67512938  1
  O  O15  1  0.58074652  0.50628367  0.32487062  1
  O  O16  1  0.41925348  0.92553715  0.00846338  1
  O  O17  1  1.00000000  0.09795206  0.66666700  1
  O  O18  1  0.92553715  0.41925348  0.99153662  1
  O  O19  1  0.07446285  0.49371633  0.34179638  1
  O  O20  1  0.49371633  0.07446285  0.65820362  1
  F  F21  1  0.36304077  0.70614784  0.55799404  1
  F  F22  1  0.15852427  0.87926051  0.76179314  1
  F  F23  1  0.27926376  0.12073949  0.90487386  1
  F  F24  1  0.83248197  0.63499607  0.88321502  1
  F  F25  1  0.65689293  0.29385216  0.10867196  1
  F  F26  1  0.63499607  0.83248197  0.11678498  1
  F  F27  1  0.19748589  0.36500393  0.78345198  1
  F  F28  1  0.16751803  0.80251411  0.45011898  1
  F  F29  1  0.63695923  0.34310707  0.77533896  1
  F  F30  1  0.72073624  0.84147573  0.42845914  1
  F  F31  1  0.36500393  0.19748589  0.21654802  1
  F  F32  1  0.12073949  0.27926376  0.09512614  1
  F  F33  1  0.87926051  0.15852427  0.23820686  1
  F  F34  1  0.34310707  0.63695923  0.22466104  1
  F  F35  1  0.29385216  0.65689293  0.89132804  1
  F  F36  1  0.70614784  0.36304077  0.44200596  1
  F  F37  1  0.80251411  0.16751803  0.54988102  1
  F  F38  1  0.84147573  0.72073624  0.57154086  1
