# generated using pymatgen
data_MgH8(ClO6)2
_symmetry_space_group_name_H-M   'P 1'
_cell_length_a   6.06050482
_cell_length_b   6.85708397
_cell_length_c   6.85708397
_cell_angle_alpha   73.08736756
_cell_angle_beta   107.68124575
_cell_angle_gamma   107.68124575
_symmetry_Int_Tables_number   1
_chemical_formula_structural   MgH8(ClO6)2
_chemical_formula_sum   'Mg1 H8 Cl2 O12'
_cell_volume   252.40471384
_cell_formula_units_Z   1
loop_
 _symmetry_equiv_pos_site_id
 _symmetry_equiv_pos_as_xyz
  1  'x, y, z'
loop_
 _atom_site_type_symbol
 _atom_site_label
 _atom_site_symmetry_multiplicity
 _atom_site_fract_x
 _atom_site_fract_y
 _atom_site_fract_z
 _atom_site_occupancy
  Mg  Mg0  1  0.50000000  0.99029706  0.00970194  1
  H  H1  1  0.37230363  0.28882860  0.09969297  1
  H  H2  1  0.18020685  0.09324417  0.17120889  1
  H  H3  1  0.36287858  0.62286512  0.28734768  1
  H  H4  1  0.63712342  0.71265232  0.37713488  1
  H  H5  1  0.36451659  0.26898034  0.63706919  1
  H  H6  1  0.62769537  0.90030703  0.71117040  1
  H  H7  1  0.63548441  0.36293081  0.73101966  1
  H  H8  1  0.81979415  0.82879111  0.90675583  1
  Cl  Cl9  1  0.90801713  0.28268292  0.31595401  1
  Cl  Cl10  1  0.09198387  0.68404599  0.71731708  1
  O  O11  1  0.33656115  0.13580095  0.13815939  1
  O  O12  1  0.85557429  0.13522904  0.17374549  1
  O  O13  1  0.79704487  0.45509867  0.20385914  1
  O  O14  1  0.50000000  0.73906756  0.26093244  1
  O  O15  1  0.16903347  0.35949812  0.37021721  1
  O  O16  1  0.82629140  0.16940118  0.50368604  1
  O  O17  1  0.20295613  0.79614086  0.54490133  1
  O  O18  1  0.83096753  0.62978279  0.64050188  1
  O  O19  1  0.50000000  0.24415630  0.75584270  1
  O  O20  1  0.17370960  0.49631296  0.83059782  1
  O  O21  1  0.66343885  0.86183961  0.86419805  1
  O  O22  1  0.14442571  0.82625451  0.86477096  1
