# generated using pymatgen
data_Ba(PO3)2
_symmetry_space_group_name_H-M   'P 1'
_cell_length_a   4.56339725
_cell_length_b   8.52342663
_cell_length_c   13.67318522
_cell_angle_alpha   90.00000000
_cell_angle_beta   90.00000000
_cell_angle_gamma   90.00000000
_symmetry_Int_Tables_number   1
_chemical_formula_structural   Ba(PO3)2
_chemical_formula_sum   'Ba4 P8 O24'
_cell_volume   531.82922669
_cell_formula_units_Z   4
loop_
 _symmetry_equiv_pos_site_id
 _symmetry_equiv_pos_as_xyz
  1  'x, y, z'
loop_
 _atom_site_type_symbol
 _atom_site_label
 _atom_site_symmetry_multiplicity
 _atom_site_fract_x
 _atom_site_fract_y
 _atom_site_fract_z
 _atom_site_occupancy
  O  O0  1  0.78242201  0.91491656  0.36895063  1
  O  O1  1  0.28242201  0.08508344  0.13104937  1
  O  O2  1  0.71757799  0.41491656  0.63104937  1
  O  O3  1  0.21757799  0.58508344  0.86895063  1
  O  O4  1  0.74854886  0.62325387  0.49149704  1
  O  O5  1  0.24854886  0.37674613  0.00850296  1
  O  O6  1  0.75145114  0.12325387  0.50850296  1
  O  O7  1  0.25145114  0.87674613  0.99149704  1
  O  O8  1  0.79031239  0.63499023  0.23971223  1
  O  O9  1  0.29031239  0.36500977  0.26028777  1
  O  O10  1  0.70968761  0.13499023  0.76028777  1
  O  O11  1  0.20968761  0.86500977  0.73971223  1
  O  O12  1  0.61088395  0.70590759  0.66628415  1
  O  O13  1  0.11088395  0.29409241  0.83371585  1
  O  O14  1  0.88911605  0.20590759  0.33371585  1
  O  O15  1  0.38911605  0.79409241  0.16628415  1
  O  O16  1  0.11322763  0.61436300  0.63483277  1
  O  O17  1  0.61322763  0.38563700  0.86516723  1
  O  O18  1  0.38677237  0.11436300  0.36516723  1
  O  O19  1  0.88677237  0.88563700  0.13483277  1
  O  O20  1  0.27279160  0.87054899  0.55305004  1
  O  O21  1  0.77279160  0.12945101  0.94694996  1
  O  O22  1  0.22720840  0.37054899  0.44694996  1
  O  O23  1  0.72720840  0.62945101  0.05305004  1
  P  P24  1  0.21683247  0.92250942  0.09663947  1
  P  P25  1  0.71683247  0.07749058  0.40336053  1
  P  P26  1  0.28316753  0.42250942  0.90336053  1
  P  P27  1  0.78316753  0.57749058  0.59663947  1
  P  P28  1  0.71244195  0.71997043  0.14703214  1
  P  P29  1  0.21244195  0.28002957  0.35296786  1
  P  P30  1  0.78755805  0.21997043  0.85296786  1
  P  P31  1  0.28755805  0.78002957  0.64703214  1
  Ba  Ba32  1  0.25831030  0.69883457  0.37662233  1
  Ba  Ba33  1  0.75831030  0.30116543  0.12337767  1
  Ba  Ba34  1  0.24168970  0.19883457  0.62337767  1
  Ba  Ba35  1  0.74168970  0.80116543  0.87662233  1
