# generated using pymatgen
data_KBF4
_symmetry_space_group_name_H-M   'P 1'
_cell_length_a   5.36067218
_cell_length_b   5.29811545
_cell_length_c   5.50958401
_cell_angle_alpha   56.17548108
_cell_angle_beta   56.35485445
_cell_angle_gamma   62.86707129
_symmetry_Int_Tables_number   1
_chemical_formula_structural   KBF4
_chemical_formula_sum   'K1 B1 F4'
_cell_volume   105.72426455
_cell_formula_units_Z   1
loop_
 _symmetry_equiv_pos_site_id
 _symmetry_equiv_pos_as_xyz
  1  'x, y, z'
loop_
 _atom_site_type_symbol
 _atom_site_label
 _atom_site_symmetry_multiplicity
 _atom_site_fract_x
 _atom_site_fract_y
 _atom_site_fract_z
 _atom_site_occupancy
  K  K0  1  0.54518226  0.42900738  0.43859068  1
  B  B1  1  0.82101076  0.68111667  0.64795044  1
  F  F2  1  0.49705756  0.75335643  0.80695621  1
  F  F3  1  0.95551380  0.69407366  0.80274868  1
  F  F4  1  0.92063667  0.37596023  0.66090916  1
  F  F5  1  0.91459894  0.89848563  0.32484482  1
