# generated using pymatgen
data_Na2PO3F
_symmetry_space_group_name_H-M   'P 1'
_cell_length_a   5.50478845
_cell_length_b   7.02512408
_cell_length_c   19.23148395
_cell_angle_alpha   90.00000000
_cell_angle_beta   90.00000000
_cell_angle_gamma   90.00000000
_symmetry_Int_Tables_number   1
_chemical_formula_structural   Na2PO3F
_chemical_formula_sum   'Na16 P8 O24 F8'
_cell_volume   743.71652210
_cell_formula_units_Z   8
loop_
 _symmetry_equiv_pos_site_id
 _symmetry_equiv_pos_as_xyz
  1  'x, y, z'
loop_
 _atom_site_type_symbol
 _atom_site_label
 _atom_site_symmetry_multiplicity
 _atom_site_fract_x
 _atom_site_fract_y
 _atom_site_fract_z
 _atom_site_occupancy
  O  O0  1  0.31418647  0.38126531  0.16315959  1
  O  O1  1  0.68581353  0.88126531  0.33684041  1
  O  O2  1  0.81418647  0.11873469  0.83684041  1
  O  O3  1  0.18581353  0.61873469  0.66315959  1
  O  O4  1  0.21732301  0.47844590  0.78707533  1
  O  O5  1  0.71732301  0.02155410  0.21292467  1
  O  O6  1  0.78267699  0.97844590  0.71292467  1
  O  O7  1  0.28267699  0.52155410  0.28707533  1
  O  O8  1  0.01527941  0.96574299  0.56242595  1
  O  O9  1  0.51527941  0.53425701  0.43757405  1
  O  O10  1  0.98472059  0.46574299  0.93757405  1
  O  O11  1  0.48472059  0.03425701  0.06242595  1
  O  O12  1  0.27770881  0.00425695  0.45253798  1
  O  O13  1  0.77770881  0.49574305  0.54746202  1
  O  O14  1  0.72229119  0.50425695  0.04746202  1
  O  O15  1  0.22229119  0.99574305  0.95253798  1
  O  O16  1  0.47711663  0.93888740  0.57048638  1
  O  O17  1  0.97711663  0.56111260  0.42951362  1
  O  O18  1  0.52288337  0.43888740  0.92951362  1
  O  O19  1  0.02288337  0.06111260  0.07048638  1
  O  O20  1  0.57428259  0.44788533  0.70173807  1
  O  O21  1  0.07428259  0.05211467  0.29826193  1
  O  O22  1  0.42571741  0.94788533  0.79826193  1
  O  O23  1  0.92571741  0.55211467  0.20173807  1
  F  F24  1  0.31617562  0.73045676  0.18395897  1
  F  F25  1  0.81617562  0.76954324  0.81604103  1
  F  F26  1  0.68382438  0.23045676  0.31604103  1
  F  F27  1  0.18382438  0.26954324  0.68395897  1
  F  F28  1  0.28237982  0.25071993  0.54460773  1
  F  F29  1  0.71762018  0.75071993  0.95539227  1
  F  F30  1  0.78237982  0.24928007  0.45539227  1
  F  F31  1  0.21762018  0.74928007  0.04460773  1
  Na  Na32  1  0.25756409  0.42024683  0.03932987  1
  Na  Na33  1  0.75756409  0.07975317  0.96067013  1
  Na  Na34  1  0.74243591  0.92024683  0.46067013  1
  Na  Na35  1  0.24243591  0.57975317  0.53932987  1
  Na  Na36  1  0.28422668  0.06126780  0.19135778  1
  Na  Na37  1  0.78422668  0.43873220  0.80864222  1
  Na  Na38  1  0.71577332  0.56126780  0.30864222  1
  Na  Na39  1  0.21577332  0.93873220  0.69135778  1
  Na  Na40  1  0.24669320  0.71102015  0.87795387  1
  Na  Na41  1  0.74669320  0.78897985  0.12204613  1
  Na  Na42  1  0.75330680  0.21102015  0.62204613  1
  Na  Na43  1  0.25330680  0.28897985  0.37795387  1
  Na  Na44  1  0.23815809  0.22078621  0.86603367  1
  Na  Na45  1  0.73815809  0.27921379  0.13396633  1
  Na  Na46  1  0.76184191  0.72078621  0.63396633  1
  Na  Na47  1  0.26184191  0.77921379  0.36603367  1
  P  P48  1  0.19848183  0.52655063  0.21170214  1
  P  P49  1  0.69848183  0.97344937  0.78829786  1
  P  P50  1  0.80151817  0.02655063  0.28829786  1
  P  P51  1  0.30151817  0.47344937  0.71170214  1
  P  P52  1  0.24012575  0.97973570  0.03122580  1
  P  P53  1  0.74012575  0.52026430  0.96877420  1
  P  P54  1  0.75987425  0.47973570  0.46877420  1
  P  P55  1  0.25987425  0.02026430  0.53122580  1
