# generated using pymatgen
data_H2O
_symmetry_space_group_name_H-M   'P 1'
_cell_length_a   4.30646102
_cell_length_b   4.30646102
_cell_length_c   6.26864080
_cell_angle_alpha   90.00000000
_cell_angle_beta   90.00000000
_cell_angle_gamma   122.40760058
_symmetry_Int_Tables_number   1
_chemical_formula_structural   H2O
_chemical_formula_sum   'H8 O4'
_cell_volume   98.14970836
_cell_formula_units_Z   4
loop_
 _symmetry_equiv_pos_site_id
 _symmetry_equiv_pos_as_xyz
  1  'x, y, z'
loop_
 _atom_site_type_symbol
 _atom_site_label
 _atom_site_symmetry_multiplicity
 _atom_site_fract_x
 _atom_site_fract_y
 _atom_site_fract_z
 _atom_site_occupancy
  H  H0  1  0.85596255  0.14403745  0.50000000  1
  H  H1  1  0.14403745  0.85596255  0.00000000  1
  H  H2  1  0.13000936  0.13000936  0.25000000  1
  H  H3  1  0.86999064  0.86999064  0.75000000  1
  H  H4  1  0.19018071  0.74716982  0.25668832  1
  H  H5  1  0.25283018  0.80981929  0.74331168  1
  H  H6  1  0.80981929  0.25283018  0.75668832  1
  H  H7  1  0.74716982  0.19018071  0.24331168  1
  O  O8  1  0.97720856  0.27616542  0.32481376  1
  O  O9  1  0.72383458  0.02279144  0.67518624  1
  O  O10  1  0.02279144  0.72383458  0.82481376  1
  O  O11  1  0.27616542  0.97720856  0.17518624  1
