# generated using pymatgen
data_Na3OsN2
_symmetry_space_group_name_H-M   'P 1'
_cell_length_a   5.73348426
_cell_length_b   8.77163599
_cell_length_c   9.09222043
_cell_angle_alpha   90.00000000
_cell_angle_beta   113.57891402
_cell_angle_gamma   90.00000000
_symmetry_Int_Tables_number   1
_chemical_formula_structural   Na3OsN2
_chemical_formula_sum   'Na12 Os4 N8'
_cell_volume   419.08912499
_cell_formula_units_Z   4
loop_
 _symmetry_equiv_pos_site_id
 _symmetry_equiv_pos_as_xyz
  1  'x, y, z'
loop_
 _atom_site_type_symbol
 _atom_site_label
 _atom_site_symmetry_multiplicity
 _atom_site_fract_x
 _atom_site_fract_y
 _atom_site_fract_z
 _atom_site_occupancy
  Na  Na0  1  0.23623293  0.96319182  0.97377813  1
  Na  Na1  1  0.76376707  0.46319182  0.52622187  1
  Na  Na2  1  0.76376707  0.03680818  0.02622187  1
  Na  Na3  1  0.23623293  0.53680818  0.47377813  1
  Na  Na4  1  0.29356883  0.59395619  0.83847316  1
  Na  Na5  1  0.70643117  0.09395619  0.66152684  1
  Na  Na6  1  0.70643117  0.40604381  0.16152684  1
  Na  Na7  1  0.29356883  0.90604381  0.33847316  1
  Na  Na8  1  0.73903799  0.74643854  0.76272206  1
  Na  Na9  1  0.26096201  0.24643854  0.73727794  1
  Na  Na10  1  0.26096201  0.25356146  0.23727794  1
  Na  Na11  1  0.73903799  0.75356146  0.26272206  1
  Os  Os12  1  0.13755698  0.89014227  0.61498275  1
  Os  Os13  1  0.86244302  0.39014227  0.88501725  1
  Os  Os14  1  0.86244302  0.10985773  0.38501725  1
  Os  Os15  1  0.13755698  0.60985773  0.11498275  1
  N  N16  1  0.01360392  0.20914658  0.92930452  1
  N  N17  1  0.98639608  0.70914658  0.57069548  1
  N  N18  1  0.98639608  0.79085342  0.07069548  1
  N  N19  1  0.01360392  0.29085342  0.42930452  1
  N  N20  1  0.57704471  0.46572408  0.73422890  1
  N  N21  1  0.42295529  0.96572408  0.76577110  1
  N  N22  1  0.42295529  0.53427592  0.26577110  1
  N  N23  1  0.57704471  0.03427592  0.23422890  1
