# generated using pymatgen
data_Sb2O3
_symmetry_space_group_name_H-M   'P 1'
_cell_length_a   8.12544546
_cell_length_b   8.12544545
_cell_length_c   8.12544545
_cell_angle_alpha   59.99999998
_cell_angle_beta   59.99999998
_cell_angle_gamma   59.99999998
_symmetry_Int_Tables_number   1
_chemical_formula_structural   Sb2O3
_chemical_formula_sum   'Sb8 O12'
_cell_volume   379.33816546
_cell_formula_units_Z   4
loop_
 _symmetry_equiv_pos_site_id
 _symmetry_equiv_pos_as_xyz
  1  'x, y, z'
loop_
 _atom_site_type_symbol
 _atom_site_label
 _atom_site_symmetry_multiplicity
 _atom_site_fract_x
 _atom_site_fract_y
 _atom_site_fract_z
 _atom_site_occupancy
  O  O0  1  0.81008914  0.43991086  0.43991086  1
  O  O1  1  0.56008914  0.18991086  0.18991086  1
  O  O2  1  0.43991086  0.81008914  0.43991086  1
  O  O3  1  0.43991086  0.43991086  0.81008914  1
  O  O4  1  0.81008914  0.81008914  0.43991086  1
  O  O5  1  0.81008914  0.43991086  0.81008914  1
  O  O6  1  0.56008914  0.18991086  0.56008914  1
  O  O7  1  0.18991086  0.56008914  0.18991086  1
  O  O8  1  0.43991086  0.81008914  0.81008914  1
  O  O9  1  0.18991086  0.18991086  0.56008914  1
  O  O10  1  0.56008914  0.56008914  0.18991086  1
  O  O11  1  0.18991086  0.56008914  0.56008914  1
  Sb  Sb12  1  0.71243284  0.26252239  0.26252239  1
  Sb  Sb13  1  0.73747761  0.73747761  0.73747761  1
  Sb  Sb14  1  0.73747761  0.73747761  0.28756716  1
  Sb  Sb15  1  0.73747761  0.28756716  0.73747761  1
  Sb  Sb16  1  0.26252239  0.26252239  0.71243284  1
  Sb  Sb17  1  0.26252239  0.71243284  0.26252239  1
  Sb  Sb18  1  0.26252239  0.26252239  0.26252239  1
  Sb  Sb19  1  0.28756716  0.73747761  0.73747761  1
