# generated using pymatgen
data_Sr(PrS2)2
_symmetry_space_group_name_H-M   'P 1'
_cell_length_a   7.57300810
_cell_length_b   7.57297533
_cell_length_c   7.57300792
_cell_angle_alpha   109.47705850
_cell_angle_beta   109.46040687
_cell_angle_gamma   109.47706436
_symmetry_Int_Tables_number   1
_chemical_formula_structural   Sr(PrS2)2
_chemical_formula_sum   'Sr2 Pr4 S8'
_cell_volume   334.33113531
_cell_formula_units_Z   2
loop_
 _symmetry_equiv_pos_site_id
 _symmetry_equiv_pos_as_xyz
  1  'x, y, z'
loop_
 _atom_site_type_symbol
 _atom_site_label
 _atom_site_symmetry_multiplicity
 _atom_site_fract_x
 _atom_site_fract_y
 _atom_site_fract_z
 _atom_site_occupancy
  Pr  Pr0  1  0.24999241  0.62729564  0.37731582  1
  Pr  Pr1  1  0.75001356  0.87270992  0.12269328  1
  Pr  Pr2  1  0.62269328  0.37270992  0.25001356  1
  Pr  Pr3  1  0.87731582  0.12729564  0.74999241  1
  S  S4  1  0.99073318  0.84720248  0.49155120  1
  S  S5  1  0.99155120  0.34720248  0.49073318  1
  S  S6  1  0.50922235  0.00077080  0.85645121  1
  S  S7  1  0.14354204  0.15280237  0.14435515  1
  S  S8  1  0.35645121  0.50077080  0.00922235  1
  S  S9  1  0.64435515  0.65280237  0.64354204  1
  S  S10  1  0.50844245  0.99921921  0.35567586  1
  S  S11  1  0.85567586  0.49921921  0.00844245  1
  Sr  Sr12  1  0.12500277  0.74999959  0.87500870  1
  Sr  Sr13  1  0.37500870  0.24999959  0.62500277  1
