# generated using pymatgen
data_ScBiO3
_symmetry_space_group_name_H-M   'P 1'
_cell_length_a   5.78308301
_cell_length_b   5.91903836
_cell_length_c   5.78313895
_cell_angle_alpha   119.25455031
_cell_angle_beta   59.99415915
_cell_angle_gamma   119.25427244
_symmetry_Int_Tables_number   1
_chemical_formula_structural   ScBiO3
_chemical_formula_sum   'Sc2 Bi2 O6'
_cell_volume   141.52823281
_cell_formula_units_Z   2
loop_
 _symmetry_equiv_pos_site_id
 _symmetry_equiv_pos_as_xyz
  1  'x, y, z'
loop_
 _atom_site_type_symbol
 _atom_site_label
 _atom_site_symmetry_multiplicity
 _atom_site_fract_x
 _atom_site_fract_y
 _atom_site_fract_z
 _atom_site_occupancy
  Sc  Sc0  1  0.22051968  0.66160732  0.22054599  1
  Sc  Sc1  1  0.72055548  0.16160650  0.72051578  1
  Bi  Bi2  1  0.00578289  0.01735464  0.00570506  1
  Bi  Bi3  1  0.50569821  0.51735551  0.50578774  1
  O  O4  1  0.04597396  0.35218427  0.42743416  1
  O  O5  1  0.54602622  0.85201204  0.37869111  1
  O  O6  1  0.37871971  0.85207393  0.92741896  1
  O  O7  1  0.42742073  0.35207408  0.87872033  1
  O  O8  1  0.87869352  0.35201224  0.04602685  1
  O  O9  1  0.92742961  0.85217948  0.54597402  1
