# generated using pymatgen
data_Li2Ti(TeO4)3
_symmetry_space_group_name_H-M   'P 1'
_cell_length_a   5.21670390
_cell_length_b   5.01660764
_cell_length_c   8.44511422
_cell_angle_alpha   90.00000000
_cell_angle_beta   90.00000000
_cell_angle_gamma   90.76273694
_symmetry_Int_Tables_number   1
_chemical_formula_structural   Li2Ti(TeO4)3
_chemical_formula_sum   'Li2 Ti1 Te3 O12'
_cell_volume   220.99037908
_cell_formula_units_Z   1
loop_
 _symmetry_equiv_pos_site_id
 _symmetry_equiv_pos_as_xyz
  1  'x, y, z'
loop_
 _atom_site_type_symbol
 _atom_site_label
 _atom_site_symmetry_multiplicity
 _atom_site_fract_x
 _atom_site_fract_y
 _atom_site_fract_z
 _atom_site_occupancy
  Li  Li0  1  0.50000000  0.00000000  0.30349636  1
  Li  Li1  1  0.50000000  0.50000000  0.18326955  1
  Ti  Ti2  1  0.00000000  0.00000000  0.09332457  1
  Te  Te3  1  0.00000000  0.50000000  0.41097413  1
  Te  Te4  1  0.50000000  0.00000000  0.92014628  1
  Te  Te5  1  0.50000000  0.50000000  0.61034079  1
  O  O6  1  0.13850339  0.25946871  0.25873811  1
  O  O7  1  0.18163626  0.29642870  0.58113231  1
  O  O8  1  0.19092100  0.19556406  0.93333295  1
  O  O9  1  0.32827460  0.70709551  0.43095850  1
  O  O10  1  0.32772325  0.79786284  0.09147037  1
  O  O11  1  0.35823001  0.75210332  0.75698142  1
  O  O12  1  0.64176999  0.24789668  0.75698142  1
  O  O13  1  0.67227675  0.20213716  0.09147037  1
  O  O14  1  0.67172540  0.29290449  0.43095850  1
  O  O15  1  0.80907900  0.80443594  0.93333295  1
  O  O16  1  0.81836374  0.70357130  0.58113231  1
  O  O17  1  0.86149661  0.74053129  0.25873811  1
