# generated using pymatgen
data_Hg2SeO3
_symmetry_space_group_name_H-M   'P 1'
_cell_length_a   5.26754518
_cell_length_b   10.25162161
_cell_length_c   10.25162178
_cell_angle_alpha   112.73242170
_cell_angle_beta   90.00000000
_cell_angle_gamma   90.00000000
_symmetry_Int_Tables_number   1
_chemical_formula_structural   Hg2SeO3
_chemical_formula_sum   'Hg8 Se4 O12'
_cell_volume   510.59297639
_cell_formula_units_Z   4
loop_
 _symmetry_equiv_pos_site_id
 _symmetry_equiv_pos_as_xyz
  1  'x, y, z'
loop_
 _atom_site_type_symbol
 _atom_site_label
 _atom_site_symmetry_multiplicity
 _atom_site_fract_x
 _atom_site_fract_y
 _atom_site_fract_z
 _atom_site_occupancy
  Hg  Hg0  1  0.45665666  0.64041066  0.12977023  1
  Hg  Hg1  1  0.95665666  0.35958934  0.87022977  1
  Hg  Hg2  1  0.97458550  0.80327372  0.96672233  1
  Hg  Hg3  1  0.45665666  0.87022977  0.35958934  1
  Hg  Hg4  1  0.97458550  0.03327767  0.19672628  1
  Hg  Hg5  1  0.47458550  0.96672233  0.80327372  1
  Hg  Hg6  1  0.47458550  0.19672628  0.03327767  1
  Hg  Hg7  1  0.95665666  0.12977023  0.64041066  1
  Se  Se8  1  0.41250171  0.21453132  0.42793451  1
  Se  Se9  1  0.91250171  0.78546868  0.57206549  1
  Se  Se10  1  0.41250171  0.57206549  0.78546868  1
  Se  Se11  1  0.91250171  0.42793451  0.21453132  1
  O  O12  1  0.48355602  0.48915247  0.90283137  1
  O  O13  1  0.08272105  0.19792836  0.41137212  1
  O  O14  1  0.48355602  0.09716863  0.51084753  1
  O  O15  1  0.00847906  0.87967827  0.74151939  1
  O  O16  1  0.98355602  0.90283137  0.48915247  1
  O  O17  1  0.98355602  0.51084753  0.09716863  1
  O  O18  1  0.50847906  0.74151939  0.87967827  1
  O  O19  1  0.00847906  0.25848061  0.12032173  1
  O  O20  1  0.58272105  0.80207164  0.58862788  1
  O  O21  1  0.58272105  0.41137212  0.19792836  1
  O  O22  1  0.08272105  0.58862788  0.80207164  1
  O  O23  1  0.50847906  0.12032173  0.25848061  1
