# generated using pymatgen
data_BPO4
_symmetry_space_group_name_H-M   'P 1'
_cell_length_a   4.54783802
_cell_length_b   4.54783802
_cell_length_c   10.05601728
_cell_angle_alpha   90.00000000
_cell_angle_beta   90.00000000
_cell_angle_gamma   119.99999998
_symmetry_Int_Tables_number   1
_chemical_formula_structural   BPO4
_chemical_formula_sum   'B3 P3 O12'
_cell_volume   180.12194131
_cell_formula_units_Z   3
loop_
 _symmetry_equiv_pos_site_id
 _symmetry_equiv_pos_as_xyz
  1  'x, y, z'
loop_
 _atom_site_type_symbol
 _atom_site_label
 _atom_site_symmetry_multiplicity
 _atom_site_fract_x
 _atom_site_fract_y
 _atom_site_fract_z
 _atom_site_occupancy
  B  B0  1  0.47017000  0.00000000  0.33333333  1
  B  B1  1  0.00000000  0.47017000  0.66666667  1
  B  B2  1  0.52983000  0.52983000  0.00000000  1
  O  O3  1  0.73608985  0.14394318  0.72133852  1
  O  O4  1  0.27477105  0.40601994  0.10731744  1
  O  O5  1  0.59398006  0.86875111  0.44065077  1
  O  O6  1  0.40785333  0.26391015  0.38800518  1
  O  O7  1  0.14394318  0.73608985  0.27866148  1
  O  O8  1  0.85605682  0.59214667  0.05467185  1
  O  O9  1  0.26391015  0.40785333  0.61199482  1
  O  O10  1  0.59214667  0.85605682  0.94532815  1
  O  O11  1  0.86875111  0.59398006  0.55934923  1
  O  O12  1  0.40601994  0.27477105  0.89268256  1
  O  O13  1  0.72522895  0.13124889  0.22601589  1
  O  O14  1  0.13124889  0.72522895  0.77398411  1
  P  P15  1  0.46918322  0.00000000  0.83333333  1
  P  P16  1  0.53081678  0.53081678  0.50000000  1
  P  P17  1  0.00000000  0.46918322  0.16666667  1
