# generated using pymatgen
data_KIO3
_symmetry_space_group_name_H-M   'P 1'
_cell_length_a   4.53228919
_cell_length_b   4.53228878
_cell_length_c   4.53213893
_cell_angle_alpha   88.69347121
_cell_angle_beta   88.69347132
_cell_angle_gamma   88.69369569
_symmetry_Int_Tables_number   1
_chemical_formula_structural   KIO3
_chemical_formula_sum   'K1 I1 O3'
_cell_volume   93.02606456
_cell_formula_units_Z   1
loop_
 _symmetry_equiv_pos_site_id
 _symmetry_equiv_pos_as_xyz
  1  'x, y, z'
loop_
 _atom_site_type_symbol
 _atom_site_label
 _atom_site_symmetry_multiplicity
 _atom_site_fract_x
 _atom_site_fract_y
 _atom_site_fract_z
 _atom_site_occupancy
  K  K0  1  0.00700431  0.00700431  0.00700194  1
  O  O1  1  0.54579478  0.54579478  0.10125041  1
  I  I2  1  0.50507096  0.50507096  0.50505276  1
  O  O3  1  0.10123476  0.54579519  0.54579744  1
  O  O4  1  0.54579519  0.10123476  0.54579744  1
