# generated using pymatgen
data_As2O3
_symmetry_space_group_name_H-M   'P 1'
_cell_length_a   8.26186099
_cell_length_b   8.26186099
_cell_length_c   8.26186099
_cell_angle_alpha   60.00000002
_cell_angle_beta   60.00000003
_cell_angle_gamma   60.00000004
_symmetry_Int_Tables_number   1
_chemical_formula_structural   As2O3
_chemical_formula_sum   'As8 O12'
_cell_volume   398.76648722
_cell_formula_units_Z   4
loop_
 _symmetry_equiv_pos_site_id
 _symmetry_equiv_pos_as_xyz
  1  'x, y, z'
loop_
 _atom_site_type_symbol
 _atom_site_label
 _atom_site_symmetry_multiplicity
 _atom_site_fract_x
 _atom_site_fract_y
 _atom_site_fract_z
 _atom_site_occupancy
  O  O0  1  0.95549336  0.29450664  0.29450664  1
  O  O1  1  0.70549336  0.04450664  0.04450664  1
  O  O2  1  0.29450664  0.95549336  0.29450664  1
  O  O3  1  0.29450664  0.29450664  0.95549336  1
  O  O4  1  0.95549336  0.95549336  0.29450664  1
  O  O5  1  0.95549336  0.29450664  0.95549336  1
  O  O6  1  0.70549336  0.04450664  0.70549336  1
  O  O7  1  0.04450664  0.70549336  0.04450664  1
  O  O8  1  0.29450664  0.95549336  0.95549336  1
  O  O9  1  0.04450664  0.04450664  0.70549336  1
  O  O10  1  0.70549336  0.70549336  0.04450664  1
  O  O11  1  0.04450664  0.70549336  0.70549336  1
  As  As12  1  0.22392932  0.22392932  0.22392932  1
  As  As13  1  0.77607068  0.77607068  0.17178795  1
  As  As14  1  0.77607068  0.17178795  0.77607068  1
  As  As15  1  0.17178795  0.77607068  0.77607068  1
  As  As16  1  0.22392932  0.82821205  0.22392932  1
  As  As17  1  0.82821205  0.22392932  0.22392932  1
  As  As18  1  0.22392932  0.22392932  0.82821205  1
  As  As19  1  0.77607068  0.77607068  0.77607068  1
