# generated using pymatgen
data_Sr5(SiN3)2
_symmetry_space_group_name_H-M   'P 1'
_cell_length_a   6.05919433
_cell_length_b   6.53378079
_cell_length_c   13.44081340
_cell_angle_alpha   90.00000092
_cell_angle_beta   98.54890616
_cell_angle_gamma   122.62664335
_symmetry_Int_Tables_number   1
_chemical_formula_structural   Sr5(SiN3)2
_chemical_formula_sum   'Sr10 Si4 N12'
_cell_volume   441.11156629
_cell_formula_units_Z   2
loop_
 _symmetry_equiv_pos_site_id
 _symmetry_equiv_pos_as_xyz
  1  'x, y, z'
loop_
 _atom_site_type_symbol
 _atom_site_label
 _atom_site_symmetry_multiplicity
 _atom_site_fract_x
 _atom_site_fract_y
 _atom_site_fract_z
 _atom_site_occupancy
  Sr  Sr0  1  0.00000000  0.38719700  0.75000000  1
  Sr  Sr1  1  0.00000000  0.61280300  0.25000000  1
  Sr  Sr2  1  0.11822700  0.79520700  0.99509900  1
  Sr  Sr3  1  0.88177300  0.67697900  0.50490100  1
  Sr  Sr4  1  0.88177300  0.20479300  0.00490100  1
  Sr  Sr5  1  0.11822700  0.32302100  0.49509900  1
  Sr  Sr6  1  0.31002200  0.07857200  0.71431100  1
  Sr  Sr7  1  0.68997800  0.76855000  0.78568900  1
  Sr  Sr8  1  0.68997800  0.92142800  0.28568900  1
  Sr  Sr9  1  0.31002200  0.23145000  0.21431100  1
  Si  Si10  1  0.55072700  0.91068500  0.57436200  1
  Si  Si11  1  0.44927300  0.35995800  0.92563800  1
  Si  Si12  1  0.44927300  0.08931500  0.42563800  1
  Si  Si13  1  0.55072700  0.64004200  0.07436200  1
  N  N14  1  0.30483200  0.70832300  0.64431300  1
  N  N15  1  0.69516800  0.40349200  0.85568700  1
  N  N16  1  0.69516800  0.29167700  0.35568700  1
  N  N17  1  0.30483200  0.59650800  0.14431300  1
  N  N18  1  0.55600600  0.19468900  0.55841600  1
  N  N19  1  0.44399400  0.63868300  0.94158400  1
  N  N20  1  0.44399400  0.80531100  0.44158400  1
  N  N21  1  0.55600600  0.36131700  0.05841600  1
  N  N22  1  0.87004300  0.98649500  0.62537100  1
  N  N23  1  0.12995700  0.11645200  0.87462900  1
  N  N24  1  0.12995700  0.01350500  0.37462900  1
  N  N25  1  0.87004300  0.88354800  0.12537100  1
