# generated using pymatgen
data_MnPO4
_symmetry_space_group_name_H-M   'P 1'
_cell_length_a   5.24484595
_cell_length_b   9.04500051
_cell_length_c   5.24484624
_cell_angle_alpha   68.69982466
_cell_angle_beta   56.48062599
_cell_angle_gamma   68.69983076
_symmetry_Int_Tables_number   1
_chemical_formula_structural   MnPO4
_chemical_formula_sum   'Mn2 P2 O8'
_cell_volume   188.98071028
_cell_formula_units_Z   2
loop_
 _symmetry_equiv_pos_site_id
 _symmetry_equiv_pos_as_xyz
  1  'x, y, z'
loop_
 _atom_site_type_symbol
 _atom_site_label
 _atom_site_symmetry_multiplicity
 _atom_site_fract_x
 _atom_site_fract_y
 _atom_site_fract_z
 _atom_site_occupancy
  Mn  Mn0  1  0.20666822  0.25290831  0.28869586  1
  Mn  Mn1  1  0.78869586  0.75290831  0.70666822  1
  P  P2  1  0.15696482  0.62626661  0.09354665  1
  P  P3  1  0.59354665  0.12626661  0.65696482  1
  O  O4  1  0.03757038  0.76489962  0.26541811  1
  O  O5  1  0.21584566  0.46000611  0.30385182  1
  O  O6  1  0.29010590  0.15821868  0.96643623  1
  O  O7  1  0.51327373  0.12074267  0.41798262  1
  O  O8  1  0.46643623  0.65821868  0.79010590  1
  O  O9  1  0.76541811  0.26489962  0.53757038  1
  O  O10  1  0.91798262  0.62074267  0.01327373  1
  O  O11  1  0.80385182  0.96000611  0.71584566  1
