# generated using pymatgen
data_LiGaS2
_symmetry_space_group_name_H-M   'P 1'
_cell_length_a   6.30037033
_cell_length_b   6.59662114
_cell_length_c   7.93769583
_cell_angle_alpha   90.00000000
_cell_angle_beta   90.00000000
_cell_angle_gamma   90.00000000
_symmetry_Int_Tables_number   1
_chemical_formula_structural   LiGaS2
_chemical_formula_sum   'Li4 Ga4 S8'
_cell_volume   329.89981553
_cell_formula_units_Z   4
loop_
 _symmetry_equiv_pos_site_id
 _symmetry_equiv_pos_as_xyz
  1  'x, y, z'
loop_
 _atom_site_type_symbol
 _atom_site_label
 _atom_site_symmetry_multiplicity
 _atom_site_fract_x
 _atom_site_fract_y
 _atom_site_fract_z
 _atom_site_occupancy
  Li  Li0  1  0.61833336  0.58532059  0.12236140  1
  Li  Li1  1  0.11833336  0.91467941  0.62236140  1
  Li  Li2  1  0.61833336  0.08532059  0.37763860  1
  Li  Li3  1  0.11833336  0.41467941  0.87763860  1
  S  S4  1  0.98854698  0.06703373  0.88336341  1
  S  S5  1  0.98854698  0.56703373  0.61663659  1
  S  S6  1  0.48854698  0.93296627  0.11663659  1
  S  S7  1  0.48854698  0.43296627  0.38336341  1
  S  S8  1  0.50743319  0.90553819  0.63595615  1
  S  S9  1  0.00743319  0.09446181  0.36404385  1
  S  S10  1  0.00743319  0.59446181  0.13595615  1
  S  S11  1  0.50743319  0.40553819  0.86404385  1
  Ga  Ga12  1  0.62189648  0.57319532  0.62592352  1
  Ga  Ga13  1  0.12189648  0.42680468  0.37407648  1
  Ga  Ga14  1  0.12189648  0.92680468  0.12592352  1
  Ga  Ga15  1  0.62189648  0.07319532  0.87407648  1
