# generated using pymatgen
data_RbIO3
_symmetry_space_group_name_H-M   'P 1'
_cell_length_a   4.62820940
_cell_length_b   4.62820940
_cell_length_c   4.62820940
_cell_angle_alpha   88.78303293
_cell_angle_beta   88.78303292
_cell_angle_gamma   88.78303290
_symmetry_Int_Tables_number   1
_chemical_formula_structural   RbIO3
_chemical_formula_sum   'Rb1 I1 O3'
_cell_volume   99.07158701
_cell_formula_units_Z   1
loop_
 _symmetry_equiv_pos_site_id
 _symmetry_equiv_pos_as_xyz
  1  'x, y, z'
loop_
 _atom_site_type_symbol
 _atom_site_label
 _atom_site_symmetry_multiplicity
 _atom_site_fract_x
 _atom_site_fract_y
 _atom_site_fract_z
 _atom_site_occupancy
  O  O0  1  0.39568055  0.95986728  0.95986728  1
  O  O1  1  0.95986728  0.95986728  0.39568055  1
  O  O2  1  0.95986728  0.39568055  0.95986728  1
  Rb  Rb3  1  0.49152865  0.49152865  0.49152865  1
  I  I4  1  0.00135625  0.00135625  0.00135625  1
