# generated using pymatgen
data_SF6
_symmetry_space_group_name_H-M   'P 1'
_cell_length_a   4.97235277
_cell_length_b   8.38290712
_cell_length_c   8.38290713
_cell_angle_alpha   60.91730746
_cell_angle_beta   85.43922418
_cell_angle_gamma   85.43922420
_symmetry_Int_Tables_number   1
_chemical_formula_structural   SF6
_chemical_formula_sum   'S3 F18'
_cell_volume   304.06521763
_cell_formula_units_Z   3
loop_
 _symmetry_equiv_pos_site_id
 _symmetry_equiv_pos_as_xyz
  1  'x, y, z'
loop_
 _atom_site_type_symbol
 _atom_site_label
 _atom_site_symmetry_multiplicity
 _atom_site_fract_x
 _atom_site_fract_y
 _atom_site_fract_z
 _atom_site_occupancy
  F  F0  1  0.58234641  0.74481525  0.47898877  1
  F  F1  1  0.72700364  0.06746991  0.06746991  1
  F  F2  1  0.27299636  0.93253009  0.93253009  1
  F  F3  1  0.12125305  0.19519790  0.92944872  1
  F  F4  1  0.87874695  0.07055128  0.80480210  1
  F  F5  1  0.87874695  0.80480210  0.07055128  1
  F  F6  1  0.12125305  0.92944872  0.19519790  1
  F  F7  1  0.41765359  0.52101123  0.25518475  1
  F  F8  1  0.41765359  0.25518475  0.52101123  1
  F  F9  1  0.62040346  0.74540447  0.74540447  1
  F  F10  1  0.37959654  0.25459553  0.25459553  1
  F  F11  1  0.19891667  0.59141870  0.59141870  1
  F  F12  1  0.80108333  0.40858130  0.40858130  1
  F  F13  1  0.23679701  0.59207035  0.85782643  1
  F  F14  1  0.76320299  0.14217357  0.40792965  1
  F  F15  1  0.76320299  0.40792965  0.14217357  1
  F  F16  1  0.23679701  0.85782643  0.59207035  1
  F  F17  1  0.58234641  0.47898877  0.74481525  1
  S  S18  1  0.59034329  0.33157288  0.33157288  1
  S  S19  1  0.40965671  0.66842712  0.66842712  1
  S  S20  1  0.00000000  0.00000000  0.00000000  1
