# generated using pymatgen
data_NaMg4V3O12
_symmetry_space_group_name_H-M   'P 1'
_cell_length_a   6.97273061
_cell_length_b   6.97273010
_cell_length_c   10.92927826
_cell_angle_alpha   108.60204698
_cell_angle_beta   108.60204556
_cell_angle_gamma   90.00000639
_symmetry_Int_Tables_number   1
_chemical_formula_structural   NaMg4V3O12
_chemical_formula_sum   'Na2 Mg8 V6 O24'
_cell_volume   474.22723368
_cell_formula_units_Z   2
loop_
 _symmetry_equiv_pos_site_id
 _symmetry_equiv_pos_as_xyz
  1  'x, y, z'
loop_
 _atom_site_type_symbol
 _atom_site_label
 _atom_site_symmetry_multiplicity
 _atom_site_fract_x
 _atom_site_fract_y
 _atom_site_fract_z
 _atom_site_occupancy
  Na  Na0  1  0.50000000  0.50000000  0.00000000  1
  Na  Na1  1  0.25000000  0.75000000  0.50000000  1
  Mg  Mg2  1  0.22573777  0.22573777  0.45147555  1
  Mg  Mg3  1  0.77426223  0.77426223  0.54852445  1
  Mg  Mg4  1  0.52426223  0.02426223  0.04852445  1
  Mg  Mg5  1  0.97573777  0.47573777  0.95147555  1
  Mg  Mg6  1  0.87500000  0.36652047  0.25000000  1
  Mg  Mg7  1  0.11652047  0.12500000  0.75000000  1
  Mg  Mg8  1  0.63347953  0.62500000  0.75000000  1
  Mg  Mg9  1  0.37500000  0.88347953  0.25000000  1
  V  V10  1  0.00000000  0.00000000  0.00000000  1
  V  V11  1  0.75000000  0.25000000  0.50000000  1
  V  V12  1  0.37500000  0.47352452  0.25000000  1
  V  V13  1  0.22352452  0.62500000  0.75000000  1
  V  V14  1  0.52647548  0.12500000  0.75000000  1
  V  V15  1  0.87500000  0.77647548  0.25000000  1
  O  O16  1  0.83746485  0.10076347  0.09136184  1
  O  O17  1  0.00940163  0.16253515  0.90863816  1
  O  O18  1  0.89923653  0.74610301  0.90863816  1
  O  O19  1  0.49610301  0.14923653  0.40863816  1
  O  O20  1  0.91253515  0.25940163  0.40863816  1
  O  O21  1  0.25389699  0.99059837  0.09136184  1
  O  O22  1  0.74059837  0.50389699  0.59136184  1
  O  O23  1  0.85076347  0.08746485  0.59136184  1
  O  O24  1  0.55648360  0.32617535  0.19614457  1
  O  O25  1  0.13003078  0.44351640  0.80385543  1
  O  O26  1  0.67382465  0.36033903  0.80385543  1
  O  O27  1  0.11033903  0.92382465  0.30385543  1
  O  O28  1  0.19351640  0.38003078  0.30385543  1
  O  O29  1  0.63966097  0.86996922  0.19614457  1
  O  O30  1  0.61996922  0.88966097  0.69614457  1
  O  O31  1  0.07617535  0.80648360  0.69614457  1
  O  O32  1  0.85973982  0.54932764  0.11757233  1
  O  O33  1  0.43175531  0.14026018  0.88242767  1
  O  O34  1  0.45067236  0.74216749  0.88242767  1
  O  O35  1  0.49216749  0.70067236  0.38242767  1
  O  O36  1  0.89026018  0.68175531  0.38242767  1
  O  O37  1  0.25783251  0.56824469  0.11757233  1
  O  O38  1  0.31824469  0.50783251  0.61757233  1
  O  O39  1  0.29932764  0.10973982  0.61757233  1
