# generated using pymatgen
data_Nd(PO3)3
_symmetry_space_group_name_H-M   'P 1'
_cell_length_a   7.11870588
_cell_length_b   7.11870589
_cell_length_c   7.40156000
_cell_angle_alpha   90.00000000
_cell_angle_beta   90.00000000
_cell_angle_gamma   105.38031882
_symmetry_Int_Tables_number   1
_chemical_formula_structural   Nd(PO3)3
_chemical_formula_sum   'Nd2 P6 O18'
_cell_volume   361.64831039
_cell_formula_units_Z   2
loop_
 _symmetry_equiv_pos_site_id
 _symmetry_equiv_pos_as_xyz
  1  'x, y, z'
loop_
 _atom_site_type_symbol
 _atom_site_label
 _atom_site_symmetry_multiplicity
 _atom_site_fract_x
 _atom_site_fract_y
 _atom_site_fract_z
 _atom_site_occupancy
  O  O0  1  0.25174275  0.47003007  0.70821516  1
  O  O1  1  0.74825725  0.52996993  0.20821516  1
  O  O2  1  0.47003007  0.25174275  0.79178484  1
  O  O3  1  0.52996993  0.74825725  0.29178484  1
  O  O4  1  0.78115023  0.52691007  0.78556153  1
  O  O5  1  0.21884977  0.47308993  0.28556153  1
  O  O6  1  0.52691007  0.78115023  0.71443847  1
  O  O7  1  0.47308993  0.21884977  0.21443847  1
  O  O8  1  0.37248242  0.62751758  0.00000000  1
  O  O9  1  0.62751758  0.37248242  0.50000000  1
  O  O10  1  0.82898042  0.86526022  0.08206328  1
  O  O11  1  0.17101958  0.13473978  0.58206328  1
  O  O12  1  0.86526022  0.82898042  0.41793672  1
  O  O13  1  0.13473978  0.17101958  0.91793672  1
  O  O14  1  0.21669842  0.82698513  0.21456600  1
  O  O15  1  0.78330158  0.17301487  0.71456600  1
  O  O16  1  0.82698513  0.21669842  0.28543400  1
  O  O17  1  0.17301487  0.78330158  0.78543400  1
  P  P18  1  0.33335456  0.68517914  0.79617932  1
  P  P19  1  0.66664544  0.31482086  0.29617932  1
  P  P20  1  0.68517914  0.33335456  0.70382068  1
  P  P21  1  0.31482086  0.66664544  0.20382068  1
  P  P22  1  0.25086042  0.25086042  0.75000000  1
  P  P23  1  0.74913958  0.74913958  0.25000000  1
  Nd  Nd24  1  0.87405515  0.87405515  0.75000000  1
  Nd  Nd25  1  0.12594485  0.12594485  0.25000000  1
