# generated using pymatgen
data_K2S5
_symmetry_space_group_name_H-M   'P 1'
_cell_length_a   6.61862054
_cell_length_b   6.60004864
_cell_length_c   18.71872631
_cell_angle_alpha   90.00000000
_cell_angle_beta   90.00000000
_cell_angle_gamma   90.00000000
_symmetry_Int_Tables_number   1
_chemical_formula_structural   K2S5
_chemical_formula_sum   'K8 S20'
_cell_volume   817.69419260
_cell_formula_units_Z   4
loop_
 _symmetry_equiv_pos_site_id
 _symmetry_equiv_pos_as_xyz
  1  'x, y, z'
loop_
 _atom_site_type_symbol
 _atom_site_label
 _atom_site_symmetry_multiplicity
 _atom_site_fract_x
 _atom_site_fract_y
 _atom_site_fract_z
 _atom_site_occupancy
  S  S0  1  0.54334127  0.68666136  0.15068606  1
  S  S1  1  0.04334127  0.81333864  0.84931394  1
  S  S2  1  0.45665873  0.18666136  0.34931394  1
  S  S3  1  0.95665873  0.31333864  0.65068606  1
  S  S4  1  0.24599557  0.60723440  0.13251663  1
  S  S5  1  0.74599557  0.89276560  0.86748337  1
  S  S6  1  0.75400443  0.10723440  0.36748337  1
  S  S7  1  0.25400443  0.39276560  0.63251663  1
  S  S8  1  0.59594531  0.91511270  0.54333675  1
  S  S9  1  0.09594531  0.58488730  0.45666325  1
  S  S10  1  0.40405469  0.41511270  0.95666325  1
  S  S11  1  0.90405469  0.08488730  0.04333675  1
  S  S12  1  0.43236438  0.91162666  0.63682796  1
  S  S13  1  0.93236438  0.58837334  0.36317204  1
  S  S14  1  0.56763562  0.41162666  0.86317204  1
  S  S15  1  0.06763562  0.08837334  0.13682796  1
  S  S16  1  0.44434988  0.19427068  0.68693748  1
  S  S17  1  0.94434988  0.30572932  0.31306252  1
  S  S18  1  0.55565012  0.69427068  0.81306252  1
  S  S19  1  0.05565012  0.80572932  0.18693748  1
  K  K20  1  0.40964691  0.69196150  0.32170173  1
  K  K21  1  0.90964691  0.80803850  0.67829827  1
  K  K22  1  0.59035309  0.19196150  0.17829827  1
  K  K23  1  0.09035309  0.30803850  0.82170173  1
  K  K24  1  0.84926704  0.57586855  0.00980689  1
  K  K25  1  0.34926704  0.92413145  0.99019311  1
  K  K26  1  0.15073296  0.07586855  0.49019311  1
  K  K27  1  0.65073296  0.42413145  0.50980689  1
