# generated using pymatgen
data_K3CrO4
_symmetry_space_group_name_H-M   'P 1'
_cell_length_a   6.07623032
_cell_length_b   6.07623032
_cell_length_c   6.07623032
_cell_angle_alpha   91.62220531
_cell_angle_beta   119.06788071
_cell_angle_gamma   119.06788082
_symmetry_Int_Tables_number   1
_chemical_formula_structural   K3CrO4
_chemical_formula_sum   'K3 Cr1 O4'
_cell_volume   160.79606639
_cell_formula_units_Z   1
loop_
 _symmetry_equiv_pos_site_id
 _symmetry_equiv_pos_as_xyz
  1  'x, y, z'
loop_
 _atom_site_type_symbol
 _atom_site_label
 _atom_site_symmetry_multiplicity
 _atom_site_fract_x
 _atom_site_fract_y
 _atom_site_fract_z
 _atom_site_occupancy
  O  O0  1  0.66085639  0.93827135  0.93827135  1
  O  O1  1  1.00000000  0.06172865  0.72258504  1
  O  O2  1  0.00000000  0.72258504  0.06172865  1
  O  O3  1  0.33914361  0.27741496  0.27741496  1
  K  K4  1  0.50000000  0.75000000  0.25000000  1
  K  K5  1  0.50000000  0.25000000  0.75000000  1
  K  K6  1  0.00000000  0.50000000  0.50000000  1
  Cr  Cr7  1  0.00000000  0.00000000  0.00000000  1
