# generated using pymatgen
data_H12OsN5Cl3O
_symmetry_space_group_name_H-M   'P 1'
_cell_length_a   6.91772527
_cell_length_b   6.91772527
_cell_length_c   6.91772526
_cell_angle_alpha   102.49023215
_cell_angle_beta   113.07049630
_cell_angle_gamma   113.07049626
_symmetry_Int_Tables_number   1
_chemical_formula_structural   H12OsN5Cl3O
_chemical_formula_sum   'H12 Os1 N5 Cl3 O1'
_cell_volume   252.05099573
_cell_formula_units_Z   1
loop_
 _symmetry_equiv_pos_site_id
 _symmetry_equiv_pos_as_xyz
  1  'x, y, z'
loop_
 _atom_site_type_symbol
 _atom_site_label
 _atom_site_symmetry_multiplicity
 _atom_site_fract_x
 _atom_site_fract_y
 _atom_site_fract_z
 _atom_site_occupancy
  H  H0  1  0.45083295  0.13156843  0.13156843  1
  H  H1  1  1.00000000  0.13156843  0.68073549  1
  H  H2  1  0.00000000  0.68073549  0.13156843  1
  H  H3  1  0.54916705  0.68073549  0.68073549  1
  H  H4  1  0.53014976  0.75996998  0.91562498  1
  H  H5  1  0.46985024  0.38547522  0.22982021  1
  H  H6  1  0.84434500  0.22982021  0.75996998  1
  H  H7  1  0.15565500  0.91562498  0.38547522  1
  H  H8  1  0.53014976  0.91562498  0.75996998  1
  H  H9  1  0.84434500  0.75996998  0.22982021  1
  H  H10  1  0.46985024  0.22982021  0.38547522  1
  H  H11  1  0.15565500  0.38547522  0.91562498  1
  N  N12  1  0.00000000  0.23419229  0.23419229  1
  N  N13  1  0.60358033  0.82127236  0.82127236  1
  N  N14  1  0.00000000  0.82127236  0.21769203  1
  N  N15  1  0.00000000  0.21769203  0.82127236  1
  N  N16  1  0.39641967  0.21769203  0.21769203  1
  O  O17  1  0.00000000  0.37080854  0.37080854  1
  Cl  Cl18  1  0.50000000  0.73041721  0.23041721  1
  Cl  Cl19  1  0.50000000  0.23041721  0.73041721  1
  Cl  Cl20  1  0.00000000  0.76256060  0.76256060  1
  Os  Os21  1  0.00000000  0.03208674  0.03208674  1
