# generated using pymatgen
data_ZnAgPS4
_symmetry_space_group_name_H-M   'P 1'
_cell_length_a   6.18035128
_cell_length_b   7.66490877
_cell_length_c   12.73057920
_cell_angle_alpha   90.00000000
_cell_angle_beta   89.99995580
_cell_angle_gamma   90.00000000
_symmetry_Int_Tables_number   1
_chemical_formula_structural   ZnAgPS4
_chemical_formula_sum   'Zn4 Ag4 P4 S16'
_cell_volume   603.07081747
_cell_formula_units_Z   4
loop_
 _symmetry_equiv_pos_site_id
 _symmetry_equiv_pos_as_xyz
  1  'x, y, z'
loop_
 _atom_site_type_symbol
 _atom_site_label
 _atom_site_symmetry_multiplicity
 _atom_site_fract_x
 _atom_site_fract_y
 _atom_site_fract_z
 _atom_site_occupancy
  Zn  Zn0  1  0.50302201  0.51299822  0.84104282  1
  Zn  Zn1  1  0.00302209  0.48700205  0.15895756  1
  Zn  Zn2  1  0.50302201  0.98700178  0.34104282  1
  Zn  Zn3  1  0.00302209  0.01299795  0.65895756  1
  Ag  Ag4  1  0.50011074  0.22044689  0.07174566  1
  Ag  Ag5  1  1.00011153  0.72044689  0.42825402  1
  Ag  Ag6  1  1.00011153  0.77955311  0.92825402  1
  Ag  Ag7  1  0.50011074  0.27955311  0.57174566  1
  P  P8  1  0.50556978  0.73113642  0.09510540  1
  P  P9  1  0.00557002  0.23113589  0.40489454  1
  P  P10  1  0.50556978  0.76886358  0.59510540  1
  P  P11  1  0.00557002  0.26886411  0.90489454  1
  S  S12  1  0.61772830  0.98991405  0.66961847  1
  S  S13  1  0.11772802  0.48991419  0.83038124  1
  S  S14  1  0.17188945  0.74945101  0.61328004  1
  S  S15  1  0.17188945  0.75054899  0.11328004  1
  S  S16  1  0.64348894  0.55309414  0.66708635  1
  S  S17  1  0.64348894  0.94690586  0.16708635  1
  S  S18  1  0.58749004  0.76560297  0.93834168  1
  S  S19  1  0.11772802  0.01008581  0.33038124  1
  S  S20  1  0.58749004  0.73439703  0.43834168  1
  S  S21  1  0.67188948  0.24945146  0.88672039  1
  S  S22  1  0.08749079  0.23439744  0.06165832  1
  S  S23  1  0.14348879  0.44690555  0.33291353  1
  S  S24  1  0.14348879  0.05309445  0.83291353  1
  S  S25  1  0.67188948  0.25054854  0.38672039  1
  S  S26  1  0.08749079  0.26560256  0.56165832  1
  S  S27  1  0.61772830  0.51008595  0.16961847  1
