# generated using pymatgen
data_Ca3V2O7
_symmetry_space_group_name_H-M   'P 1'
_cell_length_a   5.52835001
_cell_length_b   5.46654290
_cell_length_c   9.95003604
_cell_angle_alpha   105.94411081
_cell_angle_beta   90.00000000
_cell_angle_gamma   90.00000000
_symmetry_Int_Tables_number   1
_chemical_formula_structural   Ca3V2O7
_chemical_formula_sum   'Ca6 V4 O14'
_cell_volume   289.13178243
_cell_formula_units_Z   2
loop_
 _symmetry_equiv_pos_site_id
 _symmetry_equiv_pos_as_xyz
  1  'x, y, z'
loop_
 _atom_site_type_symbol
 _atom_site_label
 _atom_site_symmetry_multiplicity
 _atom_site_fract_x
 _atom_site_fract_y
 _atom_site_fract_z
 _atom_site_occupancy
  Ca  Ca0  1  0.71029923  0.75782818  0.00000000  1
  Ca  Ca1  1  0.21029923  0.24217182  1.00000000  1
  Ca  Ca2  1  0.78723247  0.57462157  0.63056158  1
  Ca  Ca3  1  0.28723247  0.42537843  0.36943842  1
  Ca  Ca4  1  0.78723247  0.94405900  0.36943842  1
  Ca  Ca5  1  0.28723247  0.05594100  0.63056158  1
  V  V6  1  0.75191890  0.35063641  0.19931571  1
  V  V7  1  0.25191890  0.64936359  0.80068429  1
  V  V8  1  0.25191890  0.84867930  0.19931571  1
  V  V9  1  0.75191890  0.15132070  0.80068429  1
  O  O10  1  0.73371996  0.99034027  0.60633216  1
  O  O11  1  0.23371996  0.00965973  0.39366784  1
  O  O12  1  0.23371996  0.61599089  0.60633216  1
  O  O13  1  0.73371996  0.38400911  0.39366784  1
  O  O14  1  0.03971356  0.34900046  0.77810207  1
  O  O15  1  0.53971356  0.65099954  0.22189793  1
  O  O16  1  0.53971356  0.42910162  0.77810207  1
  O  O17  1  0.03971356  0.57089838  0.22189793  1
  O  O18  1  0.96033719  0.87651851  0.83092570  1
  O  O19  1  0.46033719  0.12348149  0.16907430  1
  O  O20  1  0.76385862  0.32053795  1.00000000  1
  O  O21  1  0.26385862  0.67946205  0.00000000  1
  O  O22  1  0.96033719  0.04559281  0.16907430  1
  O  O23  1  0.46033719  0.95440719  0.83092570  1
