# generated using pymatgen
data_Ca2MnWO6
_symmetry_space_group_name_H-M   'P 1'
_cell_length_a   5.70403951
_cell_length_b   5.72371508
_cell_length_c   8.01676716
_cell_angle_alpha   88.94921308
_cell_angle_beta   135.33938578
_cell_angle_gamma   120.91176443
_symmetry_Int_Tables_number   1
_chemical_formula_structural   Ca2MnWO6
_chemical_formula_sum   'Ca2 Mn1 W1 O6'
_cell_volume   129.08456957
_cell_formula_units_Z   1
loop_
 _symmetry_equiv_pos_site_id
 _symmetry_equiv_pos_as_xyz
  1  'x, y, z'
loop_
 _atom_site_type_symbol
 _atom_site_label
 _atom_site_symmetry_multiplicity
 _atom_site_fract_x
 _atom_site_fract_y
 _atom_site_fract_z
 _atom_site_occupancy
  Ca  Ca0  1  0.99519483  0.53108608  0.27517453  1
  Ca  Ca1  1  0.00496422  0.53409364  0.77495504  1
  Mn  Mn2  1  0.99743859  0.99243712  0.50513632  1
  W  W3  1  0.99634753  0.97871087  0.99708902  1
  O  O4  1  0.18892915  0.06359155  0.32507228  1
  O  O5  1  0.79607279  0.84653206  0.66026787  1
  O  O6  1  0.39090415  0.44286925  0.13620254  1
  O  O7  1  0.42997328  0.87992639  0.74963037  1
  O  O8  1  0.53925887  0.04542547  0.20664287  1
  O  O9  1  0.63402358  0.50553856  0.85890716  1
