# generated using pymatgen
data_YP5
_symmetry_space_group_name_H-M   'P 1'
_cell_length_a   4.95878770
_cell_length_b   5.36516974
_cell_length_c   9.43815384
_cell_angle_alpha   90.00000000
_cell_angle_beta   90.00000000
_cell_angle_gamma   102.12277300
_symmetry_Int_Tables_number   1
_chemical_formula_structural   YP5
_chemical_formula_sum   'Y2 P10'
_cell_volume   245.50004700
_cell_formula_units_Z   2
loop_
 _symmetry_equiv_pos_site_id
 _symmetry_equiv_pos_as_xyz
  1  'x, y, z'
loop_
 _atom_site_type_symbol
 _atom_site_label
 _atom_site_symmetry_multiplicity
 _atom_site_fract_x
 _atom_site_fract_y
 _atom_site_fract_z
 _atom_site_occupancy
  P  P0  1  0.27668518  0.89222695  0.25000000  1
  P  P1  1  0.72331482  0.10777305  0.75000000  1
  P  P2  1  0.61594077  0.95482059  0.40748267  1
  P  P3  1  0.38405923  0.04517941  0.90748267  1
  P  P4  1  0.38405923  0.04517941  0.59251733  1
  P  P5  1  0.61594077  0.95482059  0.09251733  1
  P  P6  1  0.71393007  0.59494250  0.47162792  1
  P  P7  1  0.28606993  0.40505750  0.97162792  1
  P  P8  1  0.28606993  0.40505750  0.52837208  1
  P  P9  1  0.71393007  0.59494250  0.02837208  1
  Y  Y10  1  0.00347476  0.34637219  0.25000000  1
  Y  Y11  1  0.99652524  0.65362781  0.75000000  1
