# generated using pymatgen
data_Ca2Tl2O5
_symmetry_space_group_name_H-M   'P 1'
_cell_length_a   5.89994269
_cell_length_b   6.75059733
_cell_length_c   13.74608373
_cell_angle_alpha   90.00000000
_cell_angle_beta   90.00000000
_cell_angle_gamma   73.47805571
_symmetry_Int_Tables_number   1
_chemical_formula_structural   Ca2Tl2O5
_chemical_formula_sum   'Ca8 Tl8 O20'
_cell_volume   524.87590928
_cell_formula_units_Z   4
loop_
 _symmetry_equiv_pos_site_id
 _symmetry_equiv_pos_as_xyz
  1  'x, y, z'
loop_
 _atom_site_type_symbol
 _atom_site_label
 _atom_site_symmetry_multiplicity
 _atom_site_fract_x
 _atom_site_fract_y
 _atom_site_fract_z
 _atom_site_occupancy
  Ca  Ca0  1  0.45895534  0.88480193  0.88778362  1
  Ca  Ca1  1  0.05403560  0.98706627  0.24139879  1
  Ca  Ca2  1  0.54104466  0.61519807  0.11221638  1
  Ca  Ca3  1  0.94596440  0.51293373  0.75860121  1
  Ca  Ca4  1  0.45895534  0.38480193  0.61221638  1
  Ca  Ca5  1  0.05403560  0.48706627  0.25860121  1
  Ca  Ca6  1  0.94596440  0.01293373  0.74139879  1
  Ca  Ca7  1  0.54104466  0.11519807  0.38778362  1
  Tl  Tl8  1  0.46057869  0.88584930  0.61568785  1
  Tl  Tl9  1  0.00000000  0.75000000  0.00000000  1
  Tl  Tl10  1  0.53942131  0.61415070  0.38431215  1
  Tl  Tl11  1  0.00000000  0.75000000  0.50000000  1
  Tl  Tl12  1  0.46057869  0.38584930  0.88431215  1
  Tl  Tl13  1  0.00000000  0.25000000  0.50000000  1
  Tl  Tl14  1  0.53942131  0.11415070  0.11568785  1
  Tl  Tl15  1  0.00000000  0.25000000  0.00000000  1
  O  O16  1  0.82877804  0.79086770  0.35552299  1
  O  O17  1  0.83655428  0.78873677  0.14416709  1
  O  O18  1  0.66519188  0.83253333  0.74629616  1
  O  O19  1  0.27857679  0.93035732  0.05027933  1
  O  O20  1  0.29169012  0.92811520  0.46171971  1
  O  O21  1  0.72142321  0.56964268  0.94972067  1
  O  O22  1  0.33480812  0.66746667  0.25370384  1
  O  O23  1  0.17122196  0.70913230  0.64447701  1
  O  O24  1  0.16344572  0.71126323  0.85583291  1
  O  O25  1  0.70830988  0.57188480  0.53828029  1
  O  O26  1  0.82877804  0.29086770  0.14447701  1
  O  O27  1  0.83655428  0.28873677  0.35583291  1
  O  O28  1  0.27857679  0.43035732  0.44972067  1
  O  O29  1  0.66519188  0.33253333  0.75370384  1
  O  O30  1  0.29169012  0.42811520  0.03828029  1
  O  O31  1  0.70830988  0.07188480  0.96171971  1
  O  O32  1  0.72142321  0.06964268  0.55027933  1
  O  O33  1  0.17122196  0.20913230  0.85552299  1
  O  O34  1  0.16344572  0.21126323  0.64416709  1
  O  O35  1  0.33480812  0.16746667  0.24629616  1
