# generated using pymatgen
data_Na3SrPCO7
_symmetry_space_group_name_H-M   'P 1'
_cell_length_a   5.38308612
_cell_length_b   7.08961512
_cell_length_c   9.28360967
_cell_angle_alpha   90.00000000
_cell_angle_beta   90.26496595
_cell_angle_gamma   90.00000000
_symmetry_Int_Tables_number   1
_chemical_formula_structural   Na3SrPCO7
_chemical_formula_sum   'Na6 Sr2 P2 C2 O14'
_cell_volume   354.29597234
_cell_formula_units_Z   2
loop_
 _symmetry_equiv_pos_site_id
 _symmetry_equiv_pos_as_xyz
  1  'x, y, z'
loop_
 _atom_site_type_symbol
 _atom_site_label
 _atom_site_symmetry_multiplicity
 _atom_site_fract_x
 _atom_site_fract_y
 _atom_site_fract_z
 _atom_site_occupancy
  Na  Na0  1  0.49726485  0.29745472  0.16818439  1
  Na  Na1  1  0.01100483  0.01791955  0.01633986  1
  Na  Na2  1  0.50273515  0.79745472  0.83181561  1
  Na  Na3  1  0.47639575  0.02290889  0.48011033  1
  Na  Na4  1  0.52360425  0.52290889  0.51988967  1
  Na  Na5  1  0.98899517  0.51791955  0.98366014  1
  Sr  Sr6  1  0.98222190  0.23659710  0.68505591  1
  Sr  Sr7  1  0.01777810  0.73659710  0.31494409  1
  P  P8  1  0.00147504  0.76652464  0.67008401  1
  P  P9  1  0.99852496  0.26652464  0.32991599  1
  C  C10  1  0.48782387  0.25404628  0.85560647  1
  C  C11  1  0.51217613  0.75404628  0.14439353  1
  O  O12  1  0.07435076  0.07540014  0.26015184  1
  O  O13  1  0.22195685  0.74425888  0.56362655  1
  O  O14  1  0.28726497  0.27515882  0.93156157  1
  O  O15  1  0.22639559  0.34342776  0.41442101  1
  O  O16  1  0.92564924  0.57540014  0.73984816  1
  O  O17  1  0.08257154  0.90937253  0.78863992  1
  O  O18  1  0.47564581  0.25443147  0.71483171  1
  O  O19  1  0.29824731  0.73149923  0.08046256  1
  O  O20  1  0.71273503  0.77515882  0.06843843  1
  O  O21  1  0.70175269  0.23149923  0.91953744  1
  O  O22  1  0.52435419  0.75443147  0.28516829  1
  O  O23  1  0.77360441  0.84342776  0.58557899  1
  O  O24  1  0.91742846  0.40937253  0.21136008  1
  O  O25  1  0.77804315  0.24425888  0.43637345  1
