# generated using pymatgen
data_Cs2MgP4(HO2)8
_symmetry_space_group_name_H-M   'P 1'
_cell_length_a   7.12837658
_cell_length_b   7.54141602
_cell_length_c   8.00048520
_cell_angle_alpha   83.65214726
_cell_angle_beta   70.38677908
_cell_angle_gamma   88.29200480
_symmetry_Int_Tables_number   1
_chemical_formula_structural   Cs2MgP4(HO2)8
_chemical_formula_sum   'Cs2 Mg1 P4 H8 O16'
_cell_volume   402.64049404
_cell_formula_units_Z   1
loop_
 _symmetry_equiv_pos_site_id
 _symmetry_equiv_pos_as_xyz
  1  'x, y, z'
loop_
 _atom_site_type_symbol
 _atom_site_label
 _atom_site_symmetry_multiplicity
 _atom_site_fract_x
 _atom_site_fract_y
 _atom_site_fract_z
 _atom_site_occupancy
  Cs  Cs0  1  0.90760612  0.29327236  0.72267573  1
  Cs  Cs1  1  0.09239388  0.70672764  0.27732427  1
  Mg  Mg2  1  0.50000000  0.50000000  0.50000000  1
  P  P3  1  0.63040887  0.74891611  0.76120674  1
  P  P4  1  0.36959113  0.25108389  0.23879326  1
  P  P5  1  0.22954163  0.80335956  0.74412662  1
  P  P6  1  0.77045837  0.19664044  0.25587338  1
  H  H7  1  0.61738562  0.69040402  0.15254874  1
  H  H8  1  0.38261438  0.30959598  0.84745126  1
  H  H9  1  0.63017981  0.81899734  0.29460737  1
  H  H10  1  0.36982019  0.18100266  0.70539263  1
  H  H11  1  0.72313539  0.97179155  0.54407526  1
  H  H12  1  0.27686461  0.02820845  0.45592474  1
  H  H13  1  0.90126629  0.74781551  0.90144045  1
  H  H14  1  0.09873371  0.25218449  0.09855955  1
  O  O15  1  0.58095548  0.70162399  0.28172248  1
  O  O16  1  0.41904452  0.29837601  0.71827752  1
  O  O17  1  0.70209268  0.69017407  0.91710214  1
  O  O18  1  0.29790732  0.30982593  0.08289786  1
  O  O19  1  0.66846084  0.62066863  0.62110203  1
  O  O20  1  0.33153916  0.37933137  0.37889797  1
  O  O21  1  0.72241497  0.93858216  0.67449231  1
  O  O22  1  0.27758503  0.06141784  0.32550769  1
  O  O23  1  0.39192420  0.77700013  0.84947889  1
  O  O24  1  0.60807580  0.22299987  0.15052111  1
  O  O25  1  0.24834833  0.65455293  0.62775471  1
  O  O26  1  0.75165167  0.34544707  0.37224529  1
  O  O27  1  0.25933733  0.99238120  0.64846076  1
  O  O28  1  0.74066267  0.00761880  0.35153924  1
  O  O29  1  0.03562650  0.78847746  0.91219078  1
  O  O30  1  0.96437350  0.21152254  0.08780922  1
