# generated using pymatgen
data_Er2Be2GeO7
_symmetry_space_group_name_H-M   'P 1'
_cell_length_a   4.79803575
_cell_length_b   7.40368645
_cell_length_c   7.40368645
_cell_angle_alpha   90.00000000
_cell_angle_beta   90.00000000
_cell_angle_gamma   90.00000000
_symmetry_Int_Tables_number   1
_chemical_formula_structural   Er2Be2GeO7
_chemical_formula_sum   'Er4 Be4 Ge2 O14'
_cell_volume   263.00228111
_cell_formula_units_Z   2
loop_
 _symmetry_equiv_pos_site_id
 _symmetry_equiv_pos_as_xyz
  1  'x, y, z'
loop_
 _atom_site_type_symbol
 _atom_site_label
 _atom_site_symmetry_multiplicity
 _atom_site_fract_x
 _atom_site_fract_y
 _atom_site_fract_z
 _atom_site_occupancy
  Be  Be0  1  0.04904854  0.36472808  0.13527192  1
  Be  Be1  1  0.95095146  0.86472808  0.36472808  1
  Be  Be2  1  0.04904854  0.63527192  0.86472808  1
  Be  Be3  1  0.95095146  0.13527192  0.63527192  1
  O  O4  1  0.78060614  0.91736920  0.17112324  1
  O  O5  1  0.21939386  0.17112324  0.08263080  1
  O  O6  1  0.21939386  0.58263080  0.67112324  1
  O  O7  1  0.21939386  0.41736920  0.32887676  1
  O  O8  1  0.78060614  0.32887676  0.58263080  1
  O  O9  1  0.78060614  0.67112324  0.41736920  1
  O  O10  1  0.80991384  0.00000000  0.50000000  1
  O  O11  1  0.19008616  0.50000000  0.00000000  1
  O  O12  1  0.28222392  0.14198186  0.64198186  1
  O  O13  1  0.71777608  0.64198186  0.85801814  1
  O  O14  1  0.71777608  0.35801814  0.14198186  1
  O  O15  1  0.28222392  0.85801814  0.35801814  1
  O  O16  1  0.78060614  0.08263080  0.82887676  1
  O  O17  1  0.21939386  0.82887676  0.91736920  1
  Ge  Ge18  1  0.00000000  0.50000000  0.50000000  1
  Ge  Ge19  1  0.00000000  0.00000000  0.00000000  1
  Er  Er20  1  0.50656515  0.65774572  0.15774572  1
  Er  Er21  1  0.49343485  0.15774572  0.34225428  1
  Er  Er22  1  0.49343485  0.84225428  0.65774572  1
  Er  Er23  1  0.50656515  0.34225428  0.84225428  1
