# generated using pymatgen
data_Mg(SbO3)2
_symmetry_space_group_name_H-M   'P 1'
_cell_length_a   5.21551910
_cell_length_b   5.42886786
_cell_length_c   7.57468162
_cell_angle_alpha   89.98916557
_cell_angle_beta   90.00073362
_cell_angle_gamma   89.99792493
_symmetry_Int_Tables_number   1
_chemical_formula_structural   Mg(SbO3)2
_chemical_formula_sum   'Mg2 Sb4 O12'
_cell_volume   214.47228871
_cell_formula_units_Z   2
loop_
 _symmetry_equiv_pos_site_id
 _symmetry_equiv_pos_as_xyz
  1  'x, y, z'
loop_
 _atom_site_type_symbol
 _atom_site_label
 _atom_site_symmetry_multiplicity
 _atom_site_fract_x
 _atom_site_fract_y
 _atom_site_fract_z
 _atom_site_occupancy
  Mg  Mg0  1  0.52013824  0.57083682  0.24999951  1
  Mg  Mg1  1  0.02028224  0.92917652  0.74994653  1
  Sb  Sb2  1  0.50258679  0.00777394  0.00076959  1
  Sb  Sb3  1  0.00256487  0.49223814  0.99923406  1
  Sb  Sb4  1  0.00279192  0.49227484  0.50074140  1
  Sb  Sb5  1  0.50281861  0.00773993  0.49922475  1
  O  O6  1  0.67265213  0.32278351  0.43409904  1
  O  O7  1  0.17268743  0.17725309  0.56589431  1
  O  O8  1  0.80100297  0.79282976  0.06209753  1
  O  O9  1  0.30103213  0.70714663  0.93797657  1
  O  O10  1  0.30168118  0.70666734  0.56170061  1
  O  O11  1  0.80169578  0.79335805  0.43825515  1
  O  O12  1  0.17242883  0.17729582  0.93414557  1
  O  O13  1  0.67241154  0.32271941  0.06582689  1
  O  O14  1  0.14083281  0.46160525  0.24995574  1
  O  O15  1  0.64088360  0.03830587  0.75003517  1
  O  O16  1  0.39681129  0.94095893  0.25002423  1
  O  O17  1  0.89687662  0.55909614  0.74996635  1
