# generated using pymatgen
data_MgVPO5
_symmetry_space_group_name_H-M   'P 1'
_cell_length_a   5.45143130
_cell_length_b   7.04879867
_cell_length_c   8.31581718
_cell_angle_alpha   90.90235884
_cell_angle_beta   141.25112433
_cell_angle_gamma   74.48690031
_symmetry_Int_Tables_number   1
_chemical_formula_structural   MgVPO5
_chemical_formula_sum   'Mg2 V2 P2 O10'
_cell_volume   182.60162868
_cell_formula_units_Z   2
loop_
 _symmetry_equiv_pos_site_id
 _symmetry_equiv_pos_as_xyz
  1  'x, y, z'
loop_
 _atom_site_type_symbol
 _atom_site_label
 _atom_site_symmetry_multiplicity
 _atom_site_fract_x
 _atom_site_fract_y
 _atom_site_fract_z
 _atom_site_occupancy
  Mg  Mg0  1  0.58156650  0.23725127  0.21585125  1
  Mg  Mg1  1  0.49903905  0.70724694  0.82454715  1
  V  V2  1  0.49560967  0.49435183  0.49966502  1
  V  V3  1  0.50105865  0.99310579  0.49793821  1
  P  P4  1  0.47516338  0.25182782  0.82896228  1
  P  P5  1  0.50285992  0.73869418  0.16216080  1
  O  O6  1  0.26648133  0.14388279  0.60876155  1
  O  O7  1  0.63126650  0.39451557  0.81162932  1
  O  O8  1  0.70435843  0.85923318  0.36903051  1
  O  O9  1  0.32535922  0.61120023  0.17634075  1
  O  O10  1  0.83919842  0.59027472  0.21013197  1
  O  O11  1  0.15993026  0.88493582  0.86964820  1
  O  O12  1  0.15819521  0.38335913  0.80230339  1
  O  O13  1  0.83946604  0.09326124  0.11789988  1
  O  O14  1  0.49174822  0.74819356  0.59035819  1
  O  O15  1  0.49362419  0.24316492  0.40149353  1
