# generated using pymatgen
data_Ag2H2IOF
_symmetry_space_group_name_H-M   'P 1'
_cell_length_a   4.86077535
_cell_length_b   7.90706637
_cell_length_c   6.50505817
_cell_angle_alpha   90.00000000
_cell_angle_beta   91.19039936
_cell_angle_gamma   90.00000000
_symmetry_Int_Tables_number   1
_chemical_formula_structural   Ag2H2IOF
_chemical_formula_sum   'Ag4 H4 I2 O2 F2'
_cell_volume   249.96452513
_cell_formula_units_Z   2
loop_
 _symmetry_equiv_pos_site_id
 _symmetry_equiv_pos_as_xyz
  1  'x, y, z'
loop_
 _atom_site_type_symbol
 _atom_site_label
 _atom_site_symmetry_multiplicity
 _atom_site_fract_x
 _atom_site_fract_y
 _atom_site_fract_z
 _atom_site_occupancy
  Ag  Ag0  1  0.97752479  0.50435380  0.70585878  1
  Ag  Ag1  1  0.02247521  0.00435380  0.29414122  1
  Ag  Ag2  1  0.99827145  0.04251288  0.72206101  1
  Ag  Ag3  1  0.00172855  0.54251288  0.27793899  1
  H  H4  1  0.29223188  0.73780174  0.98842040  1
  H  H5  1  0.70776812  0.23780174  0.01157960  1
  H  H6  1  0.44295945  0.55016203  0.99109483  1
  H  H7  1  0.55704055  0.05016203  0.00890517  1
  I  I8  1  0.68273058  0.77874167  0.50454479  1
  I  I9  1  0.31726942  0.27874167  0.49545521  1
  O  O10  1  0.26047921  0.61205556  0.98934176  1
  O  O11  1  0.73952079  0.11205556  0.01065824  1
  F  F12  1  0.29058454  0.93707231  0.00251650  1
  F  F13  1  0.70941546  0.43707231  0.99748350  1
