# generated using pymatgen
data_TeS7Br2
_symmetry_space_group_name_H-M   'P 1'
_cell_length_a   12.01441364
_cell_length_b   9.76024611
_cell_length_c   13.71162516
_cell_angle_alpha   90.00000000
_cell_angle_beta   90.00000000
_cell_angle_gamma   90.00000000
_symmetry_Int_Tables_number   1
_chemical_formula_structural   TeS7Br2
_chemical_formula_sum   'Te4 S28 Br8'
_cell_volume   1607.87499422
_cell_formula_units_Z   4
loop_
 _symmetry_equiv_pos_site_id
 _symmetry_equiv_pos_as_xyz
  1  'x, y, z'
loop_
 _atom_site_type_symbol
 _atom_site_label
 _atom_site_symmetry_multiplicity
 _atom_site_fract_x
 _atom_site_fract_y
 _atom_site_fract_z
 _atom_site_occupancy
  Te  Te0  1  0.25000000  0.70410069  0.59697085  1
  Te  Te1  1  0.75000000  0.79589931  0.09697085  1
  Te  Te2  1  0.25000000  0.20410069  0.90302915  1
  Te  Te3  1  0.75000000  0.29589931  0.40302915  1
  S  S4  1  0.75000000  0.25283664  0.77321280  1
  S  S5  1  0.61080293  0.15341905  0.72206756  1
  S  S6  1  0.11080293  0.84658095  0.27793244  1
  S  S7  1  0.88919707  0.65341905  0.77793244  1
  S  S8  1  0.38919707  0.84658095  0.27793244  1
  S  S9  1  0.95818535  0.76217348  0.89430327  1
  S  S10  1  0.95818535  0.26217348  0.60569673  1
  S  S11  1  0.08795602  0.32871495  0.98028768  1
  S  S12  1  0.58795602  0.17128505  0.48028768  1
  S  S13  1  0.45818535  0.23782652  0.10569673  1
  S  S14  1  0.38919707  0.34658095  0.22206756  1
  S  S15  1  0.45818535  0.73782652  0.39430327  1
  S  S16  1  0.58795602  0.67128505  0.01971232  1
  S  S17  1  0.08795602  0.82871495  0.51971232  1
  S  S18  1  0.25000000  0.74716336  0.22678720  1
  S  S19  1  0.91204398  0.67128505  0.01971232  1
  S  S20  1  0.75000000  0.75283664  0.72678720  1
  S  S21  1  0.54181465  0.26217348  0.60569673  1
  S  S22  1  0.25000000  0.24716336  0.27321280  1
  S  S23  1  0.41204398  0.32871495  0.98028768  1
  S  S24  1  0.04181465  0.73782652  0.39430327  1
  S  S25  1  0.88919707  0.15341905  0.72206756  1
  S  S26  1  0.54181465  0.76217348  0.89430327  1
  S  S27  1  0.04181465  0.23782652  0.10569673  1
  S  S28  1  0.91204398  0.17128505  0.48028768  1
  S  S29  1  0.41204398  0.82871495  0.51971232  1
  S  S30  1  0.61080293  0.65341905  0.77793244  1
  S  S31  1  0.11080293  0.34658095  0.22206756  1
  Br  Br32  1  0.75000000  0.06581955  0.29321700  1
  Br  Br33  1  0.25000000  0.43418045  0.79321700  1
  Br  Br34  1  0.25000000  0.50426193  0.47132906  1
  Br  Br35  1  0.75000000  0.99573807  0.97132906  1
  Br  Br36  1  0.75000000  0.56581955  0.20678300  1
  Br  Br37  1  0.25000000  0.00426193  0.02867094  1
  Br  Br38  1  0.75000000  0.49573807  0.52867094  1
  Br  Br39  1  0.25000000  0.93418045  0.70678300  1
