# generated using pymatgen
data_CaFe2(SiO3)4
_symmetry_space_group_name_H-M   'P 1'
_cell_length_a   5.33800114
_cell_length_b   6.63876171
_cell_length_c   6.63876146
_cell_angle_alpha   84.53456884
_cell_angle_beta   77.26017942
_cell_angle_gamma   77.26018279
_symmetry_Int_Tables_number   1
_chemical_formula_structural   CaFe2(SiO3)4
_chemical_formula_sum   'Ca1 Fe2 Si4 O12'
_cell_volume   223.55269996
_cell_formula_units_Z   1
loop_
 _symmetry_equiv_pos_site_id
 _symmetry_equiv_pos_as_xyz
  1  'x, y, z'
loop_
 _atom_site_type_symbol
 _atom_site_label
 _atom_site_symmetry_multiplicity
 _atom_site_fract_x
 _atom_site_fract_y
 _atom_site_fract_z
 _atom_site_occupancy
  Ca  Ca0  1  0.25000000  0.69577824  0.30422176  1
  Fe  Fe1  1  0.75000000  0.90733408  0.09266592  1
  Fe  Fe2  1  0.25000000  0.11467425  0.88532575  1
  Si  Si3  1  0.26345110  0.20030770  0.38051901  1
  Si  Si4  1  0.77187645  0.37749655  0.20062813  1
  Si  Si5  1  0.72812355  0.79937187  0.62250345  1
  Si  Si6  1  0.23654890  0.61948099  0.79969230  1
  O  O7  1  0.62938453  0.95576257  0.81369190  1
  O  O8  1  0.29756825  0.38987122  0.90167155  1
  O  O9  1  0.13896977  0.79899352  0.97229060  1
  O  O10  1  0.48926907  0.34293265  0.35401083  1
  O  O11  1  0.20243175  0.09832845  0.61012878  1
  O  O12  1  0.87061547  0.18630810  0.04423743  1
  O  O13  1  0.68773486  0.61527953  0.11352419  1
  O  O14  1  0.81226514  0.88647581  0.38472047  1
  O  O15  1  0.00300142  0.37155985  0.33244794  1
  O  O16  1  0.01073093  0.64598917  0.65706735  1
  O  O17  1  0.36103023  0.02770940  0.20100648  1
  O  O18  1  0.49699858  0.66755206  0.62844015  1
