# generated using pymatgen
data_Mn2ZnO4
_symmetry_space_group_name_H-M   'P 1'
_cell_length_a   6.13032306
_cell_length_b   6.13032243
_cell_length_c   6.02016717
_cell_angle_alpha   60.59265050
_cell_angle_beta   60.59264893
_cell_angle_gamma   58.92870986
_symmetry_Int_Tables_number   1
_chemical_formula_structural   Mn2ZnO4
_chemical_formula_sum   'Mn4 Zn2 O8'
_cell_volume   160.02686092
_cell_formula_units_Z   2
loop_
 _symmetry_equiv_pos_site_id
 _symmetry_equiv_pos_as_xyz
  1  'x, y, z'
loop_
 _atom_site_type_symbol
 _atom_site_label
 _atom_site_symmetry_multiplicity
 _atom_site_fract_x
 _atom_site_fract_y
 _atom_site_fract_z
 _atom_site_occupancy
  Mn  Mn0  1  0.98683823  0.98683823  0.01316177  1
  Mn  Mn1  1  0.26316177  0.26316177  0.23683823  1
  Mn  Mn2  1  0.62500000  0.62500000  0.12500000  1
  Mn  Mn3  1  0.62500000  0.62500000  0.62500000  1
  Zn  Zn4  1  0.12500000  0.62500000  0.62500000  1
  Zn  Zn5  1  0.62500000  0.12500000  0.62500000  1
  O  O6  1  0.40406577  0.40406577  0.36194648  1
  O  O7  1  0.40786955  0.84592638  0.37310204  1
  O  O8  1  0.40406577  0.40406577  0.82992399  1
  O  O9  1  0.84592638  0.40786955  0.37310204  1
  O  O10  1  0.40407362  0.84213045  0.87689796  1
  O  O11  1  0.84213045  0.40407362  0.87689796  1
  O  O12  1  0.84593423  0.84593423  0.42007601  1
  O  O13  1  0.84593423  0.84593423  0.88805352  1
