# generated using pymatgen
data_NaHO
_symmetry_space_group_name_H-M   'P 1'
_cell_length_a   6.04874596
_cell_length_b   3.64313428
_cell_length_c   5.64919773
_cell_angle_alpha   90.00000000
_cell_angle_beta   33.37171019
_cell_angle_gamma   90.00000000
_symmetry_Int_Tables_number   1
_chemical_formula_structural   NaHO
_chemical_formula_sum   'Na2 H2 O2'
_cell_volume   68.47689342
_cell_formula_units_Z   2
loop_
 _symmetry_equiv_pos_site_id
 _symmetry_equiv_pos_as_xyz
  1  'x, y, z'
loop_
 _atom_site_type_symbol
 _atom_site_label
 _atom_site_symmetry_multiplicity
 _atom_site_fract_x
 _atom_site_fract_y
 _atom_site_fract_z
 _atom_site_occupancy
  Na  Na0  1  0.08353204  0.25000000  0.22545154  1
  Na  Na1  1  0.89781244  0.75000000  0.83625764  1
  H  H2  1  0.45452133  0.25000000  0.43436257  1
  H  H3  1  0.47688667  0.75000000  0.90135461  1
  O  O4  1  0.38057588  0.25000000  0.33415693  1
  O  O5  1  0.64936563  0.75000000  0.60839570  1
