# generated using pymatgen
data_MgV2O4
_symmetry_space_group_name_H-M   'P 1'
_cell_length_a   6.05935379
_cell_length_b   6.05238333
_cell_length_c   6.05238351
_cell_angle_alpha   59.99999461
_cell_angle_beta   60.03805006
_cell_angle_gamma   60.03804713
_symmetry_Int_Tables_number   1
_chemical_formula_structural   MgV2O4
_chemical_formula_sum   'Mg2 V4 O8'
_cell_volume   157.04122947
_cell_formula_units_Z   2
loop_
 _symmetry_equiv_pos_site_id
 _symmetry_equiv_pos_as_xyz
  1  'x, y, z'
loop_
 _atom_site_type_symbol
 _atom_site_label
 _atom_site_symmetry_multiplicity
 _atom_site_fract_x
 _atom_site_fract_y
 _atom_site_fract_z
 _atom_site_occupancy
  Mg  Mg0  1  0.98952679  0.00349107  0.00349107  1
  Mg  Mg1  1  0.12032542  0.62655753  0.62655753  1
  V  V2  1  0.25986726  0.24671091  0.24671091  1
  V  V3  1  0.62812590  0.11906486  0.62640412  1
  V  V4  1  0.62812590  0.62640412  0.11906486  1
  V  V5  1  0.62812590  0.62640412  0.62640412  1
  O  O6  1  0.38692399  0.37972197  0.37972197  1
  O  O7  1  0.38692399  0.37972197  0.85363107  1
  O  O8  1  0.38692399  0.85363107  0.37972197  1
  O  O9  1  0.85096199  0.38301300  0.38301300  1
  O  O10  1  0.40419960  0.86526580  0.86526580  1
  O  O11  1  0.85999042  0.40348270  0.86826294  1
  O  O12  1  0.85999042  0.86826294  0.40348270  1
  O  O13  1  0.85999042  0.86826294  0.86826294  1
