# generated using pymatgen
data_Ca2Sn3O8
_symmetry_space_group_name_H-M   'P 1'
_cell_length_a   6.48343781
_cell_length_b   6.48343752
_cell_length_c   10.53257830
_cell_angle_alpha   90.00000000
_cell_angle_beta   90.00000000
_cell_angle_gamma   120.00000145
_symmetry_Int_Tables_number   1
_chemical_formula_structural   Ca2Sn3O8
_chemical_formula_sum   'Ca4 Sn6 O16'
_cell_volume   383.42109291
_cell_formula_units_Z   2
loop_
 _symmetry_equiv_pos_site_id
 _symmetry_equiv_pos_as_xyz
  1  'x, y, z'
loop_
 _atom_site_type_symbol
 _atom_site_label
 _atom_site_symmetry_multiplicity
 _atom_site_fract_x
 _atom_site_fract_y
 _atom_site_fract_z
 _atom_site_occupancy
  Ca  Ca0  1  0.66666700  0.33333400  0.03072337  1
  Ca  Ca1  1  0.33333300  0.66666600  0.53072437  1
  Ca  Ca2  1  0.66666700  0.33333400  0.40871919  1
  Ca  Ca3  1  0.33333300  0.66666600  0.90872019  1
  Sn  Sn4  1  0.67059762  0.83529881  0.24564159  1
  Sn  Sn5  1  0.83529981  0.16470219  0.74564159  1
  Sn  Sn6  1  0.16470219  0.32940338  0.24564159  1
  Sn  Sn7  1  0.83529781  0.67059762  0.74564159  1
  Sn  Sn8  1  0.32940338  0.16470219  0.74564159  1
  Sn  Sn9  1  0.16470219  0.83529881  0.24564159  1
  O  O10  1  0.83701875  0.16298225  0.15401445  1
  O  O11  1  0.67403650  0.83701875  0.65401345  1
  O  O12  1  0.16298225  0.32596450  0.65401345  1
  O  O13  1  0.83701775  0.67403650  0.15401445  1
  O  O14  1  0.32596350  0.16298225  0.15401445  1
  O  O15  1  0.16298225  0.83701875  0.65401345  1
  O  O16  1  0.52412906  0.47586994  0.85648368  1
  O  O17  1  0.04825912  0.52412906  0.35648268  1
  O  O18  1  0.47587094  0.95174188  0.35648268  1
  O  O19  1  0.52412906  0.04825912  0.85648368  1
  O  O20  1  0.00000000  0.00000000  0.35024399  1
  O  O21  1  0.00000000  0.00000000  0.85024399  1
  O  O22  1  0.33333300  0.66666600  0.13539727  1
  O  O23  1  0.95173988  0.47586994  0.85648368  1
  O  O24  1  0.47586994  0.52412906  0.35648268  1
  O  O25  1  0.66666700  0.33333400  0.63539727  1
