# generated using pymatgen
data_Ba8P5Br
_symmetry_space_group_name_H-M   'P 1'
_cell_length_a   8.59692804
_cell_length_b   8.59692756
_cell_length_c   8.59692807
_cell_angle_alpha   109.34277175
_cell_angle_beta   109.34276568
_cell_angle_gamma   109.72843080
_symmetry_Int_Tables_number   1
_chemical_formula_structural   Ba8P5Br
_chemical_formula_sum   'Ba8 P5 Br1'
_cell_volume   489.10420246
_cell_formula_units_Z   1
loop_
 _symmetry_equiv_pos_site_id
 _symmetry_equiv_pos_as_xyz
  1  'x, y, z'
loop_
 _atom_site_type_symbol
 _atom_site_label
 _atom_site_symmetry_multiplicity
 _atom_site_fract_x
 _atom_site_fract_y
 _atom_site_fract_z
 _atom_site_occupancy
  Ba  Ba0  1  0.00231614  0.38358758  0.49394977  1
  Ba  Ba1  1  0.48368538  0.98793707  0.34868871  1
  Ba  Ba2  1  0.13924836  0.13499667  0.15131129  1
  Ba  Ba3  1  0.38963781  0.50836637  0.00605023  1
  Ba  Ba4  1  0.61641242  0.61036219  0.61872856  1
  Ba  Ba5  1  0.49163363  0.99768386  0.88127144  1
  Ba  Ba6  1  0.01206293  0.86075164  0.49574831  1
  Ba  Ba7  1  0.86500333  0.51631462  0.00425169  1
  Br  Br8  1  0.87500000  0.12500000  0.75000000  1
  P  P9  1  0.11908265  0.75345811  0.87633202  1
  P  P10  1  0.24654189  0.62287391  0.36562454  1
  P  P11  1  0.37712609  0.24275063  0.62366798  1
  P  P12  1  0.62500000  0.37500000  0.25000000  1
  P  P13  1  0.75724937  0.88091735  0.13437546  1
