# generated using pymatgen
data_WF4
_symmetry_space_group_name_H-M   'P 1'
_cell_length_a   5.20143321
_cell_length_b   5.64252262
_cell_length_c   7.19570125
_cell_angle_alpha   122.38575389
_cell_angle_beta   109.02765444
_cell_angle_gamma   89.56710581
_symmetry_Int_Tables_number   1
_chemical_formula_structural   WF4
_chemical_formula_sum   'W2 F8'
_cell_volume   164.86262008
_cell_formula_units_Z   2
loop_
 _symmetry_equiv_pos_site_id
 _symmetry_equiv_pos_as_xyz
  1  'x, y, z'
loop_
 _atom_site_type_symbol
 _atom_site_label
 _atom_site_symmetry_multiplicity
 _atom_site_fract_x
 _atom_site_fract_y
 _atom_site_fract_z
 _atom_site_occupancy
  W  W0  1  0.00159766  0.49693932  0.00103551  1
  W  W1  1  0.49795446  -0.00434236  -0.00285533  1
  F  F2  1  0.84469291  0.30355017  0.13892877  1
  F  F3  1  0.66845654  0.23774316  0.73139769  1
  F  F4  1  0.15571408  0.68715607  0.85841051  1
  F  F5  1  0.22011568  0.18816823  0.85376809  1
  F  F6  1  0.32297832  0.77646173  0.27384176  1
  F  F7  1  0.40475361  0.27225603  0.26328241  1
  F  F8  1  0.77200027  0.80094321  0.13877290  1
  F  F9  1  0.59638347  0.73376244  0.73088569  1
