# generated using pymatgen
data_NaHfPCO7
_symmetry_space_group_name_H-M   'P 1'
_cell_length_a   9.30803098
_cell_length_b   6.65554308
_cell_length_c   5.55523675
_cell_angle_alpha   90.00000000
_cell_angle_beta   87.65665603
_cell_angle_gamma   90.00000000
_symmetry_Int_Tables_number   1
_chemical_formula_structural   NaHfPCO7
_chemical_formula_sum   'Na2 Hf2 P2 C2 O14'
_cell_volume   343.85913024
_cell_formula_units_Z   2
loop_
 _symmetry_equiv_pos_site_id
 _symmetry_equiv_pos_as_xyz
  1  'x, y, z'
loop_
 _atom_site_type_symbol
 _atom_site_label
 _atom_site_symmetry_multiplicity
 _atom_site_fract_x
 _atom_site_fract_y
 _atom_site_fract_z
 _atom_site_occupancy
  Na  Na0  1  0.20360096  0.49361725  0.24080600  1
  Na  Na1  1  0.79639904  0.99361725  0.75919400  1
  Hf  Hf2  1  0.34256767  0.76668769  0.79090298  1
  Hf  Hf3  1  0.65743233  0.26668769  0.20909702  1
  P  P4  1  0.43876527  0.25996320  0.72442181  1
  P  P5  1  0.56123473  0.75996320  0.27557819  1
  C  C6  1  0.07369302  0.73426330  0.72333990  1
  C  C7  1  0.92630698  0.23426330  0.27666010  1
  O  O8  1  0.05567922  0.24679273  0.31284932  1
  O  O9  1  0.13206812  0.73663552  0.94051933  1
  O  O10  1  0.17784913  0.72402490  0.54791488  1
  O  O11  1  0.34425944  0.07370350  0.77930152  1
  O  O12  1  0.35512950  0.44992044  0.80029064  1
  O  O13  1  0.42137423  0.74395151  0.13208737  1
  O  O14  1  0.48232936  0.26828997  0.45145190  1
  O  O15  1  0.51767064  0.76828997  0.54854810  1
  O  O16  1  0.57862577  0.24395151  0.86791263  1
  O  O17  1  0.64487050  0.94992044  0.19970936  1
  O  O18  1  0.65574056  0.57370350  0.22069848  1
  O  O19  1  0.82215087  0.22402490  0.45208512  1
  O  O20  1  0.86793188  0.23663552  0.05948067  1
  O  O21  1  0.94432078  0.74679273  0.68715068  1
