# generated using pymatgen
data_TiNbTl(O2F)2
_symmetry_space_group_name_H-M   'P 1'
_cell_length_a   7.55640209
_cell_length_b   7.36351304
_cell_length_c   7.51860030
_cell_angle_alpha   60.09589278
_cell_angle_beta   58.47797711
_cell_angle_gamma   60.50434488
_symmetry_Int_Tables_number   1
_chemical_formula_structural   TiNbTl(O2F)2
_chemical_formula_sum   'Ti2 Nb2 Tl2 O8 F4'
_cell_volume   293.54627765
_cell_formula_units_Z   2
loop_
 _symmetry_equiv_pos_site_id
 _symmetry_equiv_pos_as_xyz
  1  'x, y, z'
loop_
 _atom_site_type_symbol
 _atom_site_label
 _atom_site_symmetry_multiplicity
 _atom_site_fract_x
 _atom_site_fract_y
 _atom_site_fract_z
 _atom_site_occupancy
  Ti  Ti0  1  0.99881202  0.99559949  0.01533870  1
  Ti  Ti1  1  0.50975021  0.98466130  0.00440051  1
  Nb  Nb2  1  0.98115187  0.50860955  0.00813527  1
  Nb  Nb3  1  0.99789669  0.99186473  0.49139045  1
  Tl  Tl4  1  0.41321987  0.40784163  0.41420791  1
  Tl  Tl5  1  0.73526941  0.58579209  0.59215837  1
  O  O6  1  0.05217836  0.70593221  0.04996023  1
  O  O7  1  0.06930232  0.68263741  0.68042203  1
  O  O8  1  0.30807080  0.95003977  0.29406779  1
  O  O9  1  0.69107732  0.05732213  0.70163811  1
  O  O10  1  0.67621542  0.68832301  0.06585783  1
  O  O11  1  0.93236175  0.31957797  0.31736259  1
  O  O12  1  0.95003756  0.29836189  0.94267787  1
  O  O13  1  0.93039626  0.93414217  0.31167699  1
  F  F14  1  0.06830171  0.07119937  0.68488587  1
  F  F15  1  0.68520376  0.06707257  0.06409140  1
  F  F16  1  0.32438695  0.31511413  0.92880063  1
  F  F17  1  0.31636772  0.93590860  0.93292743  1
