# generated using pymatgen
data_MgFeF4
_symmetry_space_group_name_H-M   'P 1'
_cell_length_a   5.10150155
_cell_length_b   5.07868476
_cell_length_c   6.28570128
_cell_angle_alpha   113.69908153
_cell_angle_beta   114.01266560
_cell_angle_gamma   89.85144263
_symmetry_Int_Tables_number   1
_chemical_formula_structural   MgFeF4
_chemical_formula_sum   'Mg2 Fe2 F8'
_cell_volume   133.66995011
_cell_formula_units_Z   2
loop_
 _symmetry_equiv_pos_site_id
 _symmetry_equiv_pos_as_xyz
  1  'x, y, z'
loop_
 _atom_site_type_symbol
 _atom_site_label
 _atom_site_symmetry_multiplicity
 _atom_site_fract_x
 _atom_site_fract_y
 _atom_site_fract_z
 _atom_site_occupancy
  Mg  Mg0  1  0.25260696  0.24892160  0.49910710  1
  Mg  Mg1  1  0.75105771  0.74875810  0.49899619  1
  Fe  Fe2  1  0.99718786  0.50315613  0.00056297  1
  Fe  Fe3  1  0.49712814  0.99635539  0.99815548  1
  F  F4  1  0.91488284  0.40544896  0.26326427  1
  F  F5  1  0.65867512  0.14583853  0.73497094  1
  F  F6  1  0.08918651  0.59705998  0.74029739  1
  F  F7  1  0.15777860  0.09235125  0.73285976  1
  F  F8  1  0.34876235  0.85072466  0.26411027  1
  F  F9  1  0.41440699  0.34940915  0.26224263  1
  F  F10  1  0.84644112  0.90246420  0.25896634  1
  F  F11  1  0.58694379  0.64564206  0.73572366  1
