# generated using pymatgen
data_Ca(FeO2)2
_symmetry_space_group_name_H-M   'P 1'
_cell_length_a   6.26593588
_cell_length_b   6.26593518
_cell_length_c   6.26629097
_cell_angle_alpha   59.99811881
_cell_angle_beta   59.99812168
_cell_angle_gamma   59.98448775
_symmetry_Int_Tables_number   1
_chemical_formula_structural   Ca(FeO2)2
_chemical_formula_sum   'Ca2 Fe4 O8'
_cell_volume   173.94186661
_cell_formula_units_Z   2
loop_
 _symmetry_equiv_pos_site_id
 _symmetry_equiv_pos_as_xyz
  1  'x, y, z'
loop_
 _atom_site_type_symbol
 _atom_site_label
 _atom_site_symmetry_multiplicity
 _atom_site_fract_x
 _atom_site_fract_y
 _atom_site_fract_z
 _atom_site_occupancy
  Ca  Ca0  1  0.12500000  0.62500000  0.62500000  1
  Ca  Ca1  1  0.62500000  0.12500000  0.62500000  1
  Fe  Fe2  1  0.98606443  0.98606443  0.01393557  1
  Fe  Fe3  1  0.26393557  0.26393557  0.23606443  1
  Fe  Fe4  1  0.62500000  0.62500000  0.12500000  1
  Fe  Fe5  1  0.62500000  0.62500000  0.62500000  1
  O  O6  1  0.39660953  0.39660953  0.34391198  1
  O  O7  1  0.40011618  0.86947175  0.36520604  1
  O  O8  1  0.39660953  0.39660953  0.86286897  1
  O  O9  1  0.86947175  0.40011618  0.36520604  1
  O  O10  1  0.38052825  0.84988382  0.88479396  1
  O  O11  1  0.84988382  0.38052825  0.88479396  1
  O  O12  1  0.85339047  0.85339047  0.38713103  1
  O  O13  1  0.85339047  0.85339047  0.90608802  1
