# generated using pymatgen
data_CdSiAs2
_symmetry_space_group_name_H-M   'P 1'
_cell_length_a   5.98314249
_cell_length_b   5.98314248
_cell_length_c   6.97983304
_cell_angle_alpha   115.37887990
_cell_angle_beta   115.37887988
_cell_angle_gamma   89.99999995
_symmetry_Int_Tables_number   1
_chemical_formula_structural   CdSiAs2
_chemical_formula_sum   'Cd2 Si2 As4'
_cell_volume   198.73230569
_cell_formula_units_Z   2
loop_
 _symmetry_equiv_pos_site_id
 _symmetry_equiv_pos_as_xyz
  1  'x, y, z'
loop_
 _atom_site_type_symbol
 _atom_site_label
 _atom_site_symmetry_multiplicity
 _atom_site_fract_x
 _atom_site_fract_y
 _atom_site_fract_z
 _atom_site_occupancy
  Si  Si0  1  0.75000000  0.25000000  0.50000000  1
  Si  Si1  1  0.50000000  0.50000000  0.00000000  1
  As  As2  1  0.12500000  0.58511452  0.75000000  1
  As  As3  1  0.83511452  0.87500000  0.25000000  1
  As  As4  1  0.41488548  0.37500000  0.25000000  1
  As  As5  1  0.62500000  0.16488548  0.75000000  1
  Cd  Cd6  1  0.25000000  0.75000000  0.50000000  1
  Cd  Cd7  1  0.00000000  0.00000000  0.00000000  1
