# generated using pymatgen
data_Na2BeF4
_symmetry_space_group_name_H-M   'P 1'
_cell_length_a   5.62974327
_cell_length_b   8.02258635
_cell_length_c   8.10679719
_cell_angle_alpha   90.00000000
_cell_angle_beta   90.00000000
_cell_angle_gamma   99.85076624
_symmetry_Int_Tables_number   1
_chemical_formula_structural   Na2BeF4
_chemical_formula_sum   'Na8 Be4 F16'
_cell_volume   360.74614224
_cell_formula_units_Z   4
loop_
 _symmetry_equiv_pos_site_id
 _symmetry_equiv_pos_as_xyz
  1  'x, y, z'
loop_
 _atom_site_type_symbol
 _atom_site_label
 _atom_site_symmetry_multiplicity
 _atom_site_fract_x
 _atom_site_fract_y
 _atom_site_fract_z
 _atom_site_occupancy
  Be  Be0  1  0.70789685  0.46185609  0.69707511  1
  Be  Be1  1  0.29210315  0.53814391  0.30292489  1
  Be  Be2  1  0.20789685  0.96185609  0.80292489  1
  Be  Be3  1  0.79210315  0.03814391  0.19707511  1
  F  F4  1  0.08393478  0.56807873  0.18154642  1
  F  F5  1  0.41606522  0.93192127  0.68154642  1
  F  F6  1  0.91606522  0.43192127  0.81845358  1
  F  F7  1  0.58393478  0.06807873  0.31845358  1
  F  F8  1  0.68621926  0.89850363  0.07007248  1
  F  F9  1  0.18621926  0.39850363  0.42992752  1
  F  F10  1  0.81378074  0.60149637  0.57007248  1
  F  F11  1  0.31378074  0.10149637  0.92992752  1
  F  F12  1  0.88356838  0.20688604  0.10696086  1
  F  F13  1  0.61643162  0.29311396  0.60696086  1
  F  F14  1  0.11643162  0.79311396  0.89303914  1
  F  F15  1  0.38356838  0.70688604  0.39303914  1
  F  F16  1  0.99542132  0.97965569  0.30492154  1
  F  F17  1  0.50457868  0.52034431  0.80492154  1
  F  F18  1  0.00457868  0.02034431  0.69507846  1
  F  F19  1  0.49542132  0.47965569  0.19507846  1
  Na  Na20  1  0.21402569  0.62528876  0.65701583  1
  Na  Na21  1  0.28597431  0.87471124  0.15701583  1
  Na  Na22  1  0.78597431  0.37471124  0.34298417  1
  Na  Na23  1  0.71402569  0.12528876  0.84298417  1
  Na  Na24  1  0.71889495  0.86326722  0.51350006  1
  Na  Na25  1  0.78110505  0.63673278  0.01350006  1
  Na  Na26  1  0.28110505  0.13673278  0.48649994  1
  Na  Na27  1  0.21889495  0.36326722  0.98649994  1
