# generated using pymatgen
data_Rb2MgP4(HO2)8
_symmetry_space_group_name_H-M   'P 1'
_cell_length_a   6.96375472
_cell_length_b   7.46523690
_cell_length_c   7.81979807
_cell_angle_alpha   81.27005290
_cell_angle_beta   70.29679773
_cell_angle_gamma   85.62637631
_symmetry_Int_Tables_number   1
_chemical_formula_structural   Rb2MgP4(HO2)8
_chemical_formula_sum   'Rb2 Mg1 P4 H8 O16'
_cell_volume   378.14810928
_cell_formula_units_Z   1
loop_
 _symmetry_equiv_pos_site_id
 _symmetry_equiv_pos_as_xyz
  1  'x, y, z'
loop_
 _atom_site_type_symbol
 _atom_site_label
 _atom_site_symmetry_multiplicity
 _atom_site_fract_x
 _atom_site_fract_y
 _atom_site_fract_z
 _atom_site_occupancy
  Rb  Rb0  1  0.40070610  0.28118469  0.21084373  1
  Rb  Rb1  1  0.59929274  0.71881639  0.78915462  1
  Mg  Mg2  1  0.00000699  0.49999621  -0.00000149  1
  P  P3  1  0.15121910  0.73604677  0.25899038  1
  P  P4  1  0.73273675  0.80613910  0.25798677  1
  P  P5  1  0.26727815  0.19364861  0.74194212  1
  P  P6  1  0.84879645  0.26396262  0.74102082  1
  H  H7  1  0.24539643  0.96520805  0.03912779  1
  H  H8  1  0.87737890  0.17712540  0.21123512  1
  H  H9  1  0.88145758  0.30977111  0.35209695  1
  H  H10  1  0.41461224  0.73333892  0.42369799  1
  H  H11  1  0.58538306  0.26666238  0.57629864  1
  H  H12  1  0.11854010  0.69022899  0.64789989  1
  H  H13  1  0.12262306  0.82288013  0.78876510  1
  H  H14  1  0.75460289  0.03479714  0.96085001  1
  O  O15  1  0.18272697  0.61655812  0.11136546  1
  O  O16  1  0.74651405  0.65611056  0.14449644  1
  O  O17  1  0.75433239  0.99855576  0.15696299  1
  O  O18  1  0.25012955  0.92619726  0.17129507  1
  O  O19  1  0.94109141  0.28716138  0.22262671  1
  O  O20  1  0.90898811  0.77534852  0.35570001  1
  O  O21  1  0.22773370  0.65947860  0.41603080  1
  O  O22  1  0.53914196  0.79259282  0.43604487  1
  O  O23  1  0.46084373  0.20742220  0.56397272  1
  O  O24  1  0.77226093  0.34052933  0.58396040  1
  O  O25  1  0.09100986  0.22465897  0.64431015  1
  O  O26  1  0.05891054  0.71282117  0.77737068  1
  O  O27  1  0.74986178  0.07379171  0.82872558  1
  O  O28  1  0.24567362  0.00153095  0.84300628  1
  O  O29  1  0.25347888  0.34400061  0.85559206  1
  O  O30  1  0.81727398  0.38343355  0.88862831  1
