# generated using pymatgen
data_Rb6Si10O23
_symmetry_space_group_name_H-M   'P 1'
_cell_length_a   9.66385745
_cell_length_b   9.66385773
_cell_length_c   8.30355353
_cell_angle_alpha   90.00000000
_cell_angle_beta   90.00000000
_cell_angle_gamma   119.99999908
_symmetry_Int_Tables_number   1
_chemical_formula_structural   Rb6Si10O23
_chemical_formula_sum   'Rb6 Si10 O23'
_cell_volume   671.57677448
_cell_formula_units_Z   1
loop_
 _symmetry_equiv_pos_site_id
 _symmetry_equiv_pos_as_xyz
  1  'x, y, z'
loop_
 _atom_site_type_symbol
 _atom_site_label
 _atom_site_symmetry_multiplicity
 _atom_site_fract_x
 _atom_site_fract_y
 _atom_site_fract_z
 _atom_site_occupancy
  Rb  Rb0  1  0.25049370  0.00000000  0.50000000  1
  Rb  Rb1  1  0.74950630  0.74950630  0.50000000  1
  Rb  Rb2  1  1.00000000  0.23675726  0.00000000  1
  Rb  Rb3  1  0.23675726  0.00000000  0.00000000  1
  Rb  Rb4  1  0.76324274  0.76324274  0.00000000  1
  Rb  Rb5  1  1.00000000  0.25049370  0.50000000  1
  Si  Si6  1  0.00000000  0.60553433  0.30240846  1
  Si  Si7  1  0.66666700  0.33333300  0.19574580  1
  Si  Si8  1  0.33333300  0.66666700  0.19574580  1
  Si  Si9  1  0.39446567  0.39446567  0.30240846  1
  Si  Si10  1  0.66666700  0.33333300  0.80425420  1
  Si  Si11  1  0.39446567  0.39446567  0.69759154  1
  Si  Si12  1  0.00000000  0.60553433  0.69759154  1
  Si  Si13  1  0.60553433  0.00000000  0.30240846  1
  Si  Si14  1  0.60553433  0.00000000  0.69759154  1
  Si  Si15  1  0.33333300  0.66666700  0.80425420  1
  O  O16  1  0.33333300  0.66666700  0.00000000  1
  O  O17  1  0.24650226  0.24650226  0.22136296  1
  O  O18  1  0.00000000  0.75349774  0.77863704  1
  O  O19  1  0.38079401  0.38079401  0.50000000  1
  O  O20  1  0.15031853  0.57301675  0.73953845  1
  O  O21  1  0.75349774  0.00000000  0.77863704  1
  O  O22  1  0.57730178  0.42698325  0.73953845  1
  O  O23  1  0.57730178  0.42698325  0.26046155  1
  O  O24  1  0.84968147  0.42269822  0.26046155  1
  O  O25  1  0.84968147  0.42269822  0.73953845  1
  O  O26  1  0.66666700  0.33333300  0.00000000  1
  O  O27  1  0.42269822  0.84968147  0.26046155  1
  O  O28  1  0.57301675  0.15031853  0.26046155  1
  O  O29  1  0.75349774  0.00000000  0.22136296  1
  O  O30  1  0.61920599  0.00000000  0.50000000  1
  O  O31  1  0.00000000  0.75349774  0.22136296  1
  O  O32  1  0.42269822  0.84968147  0.73953845  1
  O  O33  1  1.00000000  0.61920599  0.50000000  1
  O  O34  1  0.42698325  0.57730178  0.73953845  1
  O  O35  1  0.57301675  0.15031853  0.73953845  1
  O  O36  1  0.24650226  0.24650226  0.77863704  1
  O  O37  1  0.42698325  0.57730178  0.26046155  1
  O  O38  1  0.15031853  0.57301675  0.26046155  1
