# generated using pymatgen
data_ZnCr2O7
_symmetry_space_group_name_H-M   'P 1'
_cell_length_a   7.09177929
_cell_length_b   6.19673301
_cell_length_c   8.15865849
_cell_angle_alpha   117.62880370
_cell_angle_beta   90.00000000
_cell_angle_gamma   90.00000000
_symmetry_Int_Tables_number   1
_chemical_formula_structural   ZnCr2O7
_chemical_formula_sum   'Zn2 Cr4 O14'
_cell_volume   317.65525277
_cell_formula_units_Z   2
loop_
 _symmetry_equiv_pos_site_id
 _symmetry_equiv_pos_as_xyz
  1  'x, y, z'
loop_
 _atom_site_type_symbol
 _atom_site_label
 _atom_site_symmetry_multiplicity
 _atom_site_fract_x
 _atom_site_fract_y
 _atom_site_fract_z
 _atom_site_occupancy
  Zn  Zn0  1  0.84383712  0.54612806  0.66335234  1
  Zn  Zn1  1  0.34383712  0.45387194  0.33664766  1
  Cr  Cr2  1  0.86520182  0.31027062  0.21114202  1
  Cr  Cr3  1  0.36520182  0.68972938  0.78885798  1
  Cr  Cr4  1  0.32139877  0.86895610  0.21725190  1
  Cr  Cr5  1  0.82139877  0.13104390  0.78274810  1
  O  O6  1  0.64408163  0.05010633  0.64919975  1
  O  O7  1  0.14408063  0.94989367  0.35080025  1
  O  O8  1  0.25268137  0.53094162  0.58678856  1
  O  O9  1  0.75268137  0.46905838  0.41321144  1
  O  O10  1  0.95865917  0.31115722  0.73104825  1
  O  O11  1  0.45865917  0.68884278  0.26895175  1
  O  O12  1  0.58094934  0.58114173  0.77377087  1
  O  O13  1  0.08094934  0.41885827  0.22622913  1
  O  O14  1  0.93589074  0.88504978  0.76356721  1
  O  O15  1  0.43589074  0.11495022  0.23643279  1
  O  O16  1  0.74414223  0.30300131  0.01677711  1
  O  O17  1  0.24414223  0.69699869  0.98322289  1
  O  O18  1  0.87821381  0.03302559  0.17070800  1
  O  O19  1  0.37821381  0.96697441  0.82929200  1
