# generated using pymatgen
data_WO3
_symmetry_space_group_name_H-M   'P 1'
_cell_length_a   5.34552073
_cell_length_b   5.41140637
_cell_length_c   7.71302847
_cell_angle_alpha   89.99821435
_cell_angle_beta   90.03504889
_cell_angle_gamma   90.00467944
_symmetry_Int_Tables_number   1
_chemical_formula_structural   WO3
_chemical_formula_sum   'W4 O12'
_cell_volume   223.11307311
_cell_formula_units_Z   4
loop_
 _symmetry_equiv_pos_site_id
 _symmetry_equiv_pos_as_xyz
  1  'x, y, z'
loop_
 _atom_site_type_symbol
 _atom_site_label
 _atom_site_symmetry_multiplicity
 _atom_site_fract_x
 _atom_site_fract_y
 _atom_site_fract_z
 _atom_site_occupancy
  W  W0  1  0.50071669  0.00276632  0.98053047  1
  W  W1  1  0.00190402  0.50314209  0.01950307  1
  W  W2  1  0.99950104  0.50254399  0.51952385  1
  W  W3  1  0.49834430  0.00302021  0.48045782  1
  O  O4  1  0.94142876  0.50598217  0.75446110  1
  O  O5  1  0.44042869  0.99294390  0.24543755  1
  O  O6  1  0.55833591  0.00671418  0.74552359  1
  O  O7  1  0.05969734  0.49346684  0.25456428  1
  O  O8  1  0.71842492  0.27890799  0.47013050  1
  O  O9  1  0.21696132  0.21830435  0.52855485  1
  O  O10  1  0.78149500  0.77889736  0.02953474  1
  O  O11  1  0.28287996  0.71851490  0.97117280  1
  O  O12  1  0.72367347  0.27608536  0.02887521  1
  O  O13  1  0.22211228  0.22138690  0.97043079  1
  O  O14  1  0.27783224  0.72130607  0.52985479  1
  O  O15  1  0.77626406  0.77601537  0.47144658  1
