# generated using pymatgen
data_Zn3Sn2O7
_symmetry_space_group_name_H-M   'P 1'
_cell_length_a   5.38853116
_cell_length_b   5.42958431
_cell_length_c   9.90979856
_cell_angle_alpha   105.89946259
_cell_angle_beta   90.00000000
_cell_angle_gamma   90.00000000
_symmetry_Int_Tables_number   1
_chemical_formula_structural   Zn3Sn2O7
_chemical_formula_sum   'Zn6 Sn4 O14'
_cell_volume   278.84395746
_cell_formula_units_Z   2
loop_
 _symmetry_equiv_pos_site_id
 _symmetry_equiv_pos_as_xyz
  1  'x, y, z'
loop_
 _atom_site_type_symbol
 _atom_site_label
 _atom_site_symmetry_multiplicity
 _atom_site_fract_x
 _atom_site_fract_y
 _atom_site_fract_z
 _atom_site_occupancy
  Zn  Zn0  1  0.72761858  0.74364882  1.00000000  1
  Zn  Zn1  1  0.22761858  0.25635118  0.00000000  1
  Zn  Zn2  1  0.79158192  0.57724553  0.59243985  1
  Zn  Zn3  1  0.29158192  0.42275447  0.40756015  1
  Zn  Zn4  1  0.79158192  0.98480468  0.40756015  1
  Zn  Zn5  1  0.29158192  0.01519532  0.59243985  1
  Sn  Sn6  1  0.75517415  0.35696960  0.20768508  1
  Sn  Sn7  1  0.25517415  0.64303040  0.79231492  1
  Sn  Sn8  1  0.25517415  0.85071548  0.20768508  1
  Sn  Sn9  1  0.75517415  0.14928452  0.79231492  1
  O  O10  1  0.66532527  0.92821026  0.58816720  1
  O  O11  1  0.16532527  0.07178974  0.41183280  1
  O  O12  1  0.16532527  0.65995594  0.58816720  1
  O  O13  1  0.66532527  0.34004406  0.41183280  1
  O  O14  1  0.08275014  0.28057688  0.72940996  1
  O  O15  1  0.58275014  0.71942312  0.27059004  1
  O  O16  1  0.58275014  0.44883308  0.72940996  1
  O  O17  1  0.08275014  0.55116692  0.27059004  1
  O  O18  1  0.92594749  0.84206692  0.84983677  1
  O  O19  1  0.42594749  0.15793308  0.15016323  1
  O  O20  1  0.85082550  0.37846228  0.00000000  1
  O  O21  1  0.35082550  0.62153772  1.00000000  1
  O  O22  1  0.92594749  0.99223014  0.15016323  1
  O  O23  1  0.42594749  0.00776986  0.84983677  1
