# generated using pymatgen
data_Ca3Mo2O7
_symmetry_space_group_name_H-M   'P 1'
_cell_length_a   5.78106758
_cell_length_b   5.62113047
_cell_length_c   10.23368372
_cell_angle_alpha   105.94047641
_cell_angle_beta   90.00000000
_cell_angle_gamma   90.00000000
_symmetry_Int_Tables_number   1
_chemical_formula_structural   Ca3Mo2O7
_chemical_formula_sum   'Ca6 Mo4 O14'
_cell_volume   319.76760165
_cell_formula_units_Z   2
loop_
 _symmetry_equiv_pos_site_id
 _symmetry_equiv_pos_as_xyz
  1  'x, y, z'
loop_
 _atom_site_type_symbol
 _atom_site_label
 _atom_site_symmetry_multiplicity
 _atom_site_fract_x
 _atom_site_fract_y
 _atom_site_fract_z
 _atom_site_occupancy
  Ca  Ca0  1  0.69754587  0.75688674  0.00000000  1
  Ca  Ca1  1  0.19754587  0.24311326  1.00000000  1
  Ca  Ca2  1  0.80385372  0.57338295  0.62106524  1
  Ca  Ca3  1  0.30385372  0.42661705  0.37893476  1
  Ca  Ca4  1  0.80385372  0.95231671  0.37893476  1
  Ca  Ca5  1  0.30385372  0.04768329  0.62106524  1
  Mo  Mo6  1  0.74953676  0.35167141  0.20131768  1
  Mo  Mo7  1  0.24953676  0.64832859  0.79868232  1
  Mo  Mo8  1  0.24953676  0.84964627  0.20131768  1
  Mo  Mo9  1  0.74953676  0.15035373  0.79868232  1
  O  O10  1  0.71543135  0.96357269  0.59899614  1
  O  O11  1  0.21543135  0.03642731  0.40100386  1
  O  O12  1  0.21543135  0.63542245  0.59899614  1
  O  O13  1  0.71543135  0.36457755  0.40100386  1
  O  O14  1  0.05687174  0.33195315  0.76240820  1
  O  O15  1  0.55687174  0.66804685  0.23759180  1
  O  O16  1  0.55687174  0.43045505  0.76240820  1
  O  O17  1  0.05687174  0.56954495  0.23759180  1
  O  O18  1  0.94055170  0.87077415  0.83816037  1
  O  O19  1  0.44055170  0.12922585  0.16183963  1
  O  O20  1  0.78996557  0.34922907  0.00000000  1
  O  O21  1  0.28996557  0.65077093  1.00000000  1
  O  O22  1  0.94055170  0.03261378  0.16183963  1
  O  O23  1  0.44055170  0.96738622  0.83816037  1
