# generated using pymatgen
data_KYSiS4
_symmetry_space_group_name_H-M   'P 1'
_cell_length_a   6.42476894
_cell_length_b   6.63912070
_cell_length_c   8.69949043
_cell_angle_alpha   90.00000000
_cell_angle_beta   107.98505975
_cell_angle_gamma   90.00000000
_symmetry_Int_Tables_number   1
_chemical_formula_structural   KYSiS4
_chemical_formula_sum   'K2 Y2 Si2 S8'
_cell_volume   352.94334486
_cell_formula_units_Z   2
loop_
 _symmetry_equiv_pos_site_id
 _symmetry_equiv_pos_as_xyz
  1  'x, y, z'
loop_
 _atom_site_type_symbol
 _atom_site_label
 _atom_site_symmetry_multiplicity
 _atom_site_fract_x
 _atom_site_fract_y
 _atom_site_fract_z
 _atom_site_occupancy
  K  K0  1  0.27001338  0.02187274  0.06432115  1
  K  K1  1  0.72998662  0.52187274  0.93567885  1
  Y  Y2  1  0.76960196  0.50114044  0.45065966  1
  Y  Y3  1  0.23039904  0.00114144  0.54934134  1
  Si  Si4  1  0.21865715  0.53773450  0.32585355  1
  Si  Si5  1  0.78134285  0.03773450  0.67414545  1
  S  S6  1  0.41396762  0.53646466  0.17052768  1
  S  S7  1  0.97692220  0.77006727  0.27951235  1
  S  S8  1  0.02021190  0.27262896  0.29834664  1
  S  S9  1  0.57879222  0.09309044  0.43288236  1
  S  S10  1  0.42120678  0.59309044  0.56711764  1
  S  S11  1  0.97978910  0.77262896  0.70165336  1
  S  S12  1  0.02307780  0.27006827  0.72048765  1
  S  S13  1  0.58603238  0.03646466  0.82947132  1
