# generated using pymatgen
data_YFe(WO4)2
_symmetry_space_group_name_H-M   'P 1'
_cell_length_a   5.16387848
_cell_length_b   6.02445514
_cell_length_c   6.27256816
_cell_angle_alpha   107.79993189
_cell_angle_beta   118.37298811
_cell_angle_gamma   90.21018141
_symmetry_Int_Tables_number   1
_chemical_formula_structural   YFe(WO4)2
_chemical_formula_sum   'Y1 Fe1 W2 O8'
_cell_volume   160.87225019
_cell_formula_units_Z   1
loop_
 _symmetry_equiv_pos_site_id
 _symmetry_equiv_pos_as_xyz
  1  'x, y, z'
loop_
 _atom_site_type_symbol
 _atom_site_label
 _atom_site_symmetry_multiplicity
 _atom_site_fract_x
 _atom_site_fract_y
 _atom_site_fract_z
 _atom_site_occupancy
  Y  Y0  1  0.62067211  0.70956520  0.10000840  1
  Fe  Fe1  1  0.15515212  0.25709937  0.11658750  1
  W  W2  1  0.87774886  0.38913045  0.58978031  1
  W  W3  1  0.38952583  0.05764318  0.61449905  1
  O  O4  1  0.12541498  0.66661472  0.83383240  1
  O  O5  1  0.57092904  0.48189740  0.30564753  1
  O  O6  1  0.16705734  0.18796843  0.79094670  1
  O  O7  1  0.56522307  0.05399765  0.39388359  1
  O  O8  1  0.64710404  0.94486504  0.86286679  1
  O  O9  1  0.11470578  0.78999909  0.37821513  1
  O  O10  1  0.08112852  0.25115825  0.39173697  1
  O  O11  1  0.68133629  0.38855721  0.81809263  1
