# generated using pymatgen
data_Ca2TaWO6
_symmetry_space_group_name_H-M   'P 1'
_cell_length_a   5.67671721
_cell_length_b   5.72674585
_cell_length_c   8.06240981
_cell_angle_alpha   90.24465688
_cell_angle_beta   134.87123102
_cell_angle_gamma   120.03918174
_symmetry_Int_Tables_number   1
_chemical_formula_structural   Ca2TaWO6
_chemical_formula_sum   'Ca2 Ta1 W1 O6'
_cell_volume   130.68886167
_cell_formula_units_Z   1
loop_
 _symmetry_equiv_pos_site_id
 _symmetry_equiv_pos_as_xyz
  1  'x, y, z'
loop_
 _atom_site_type_symbol
 _atom_site_label
 _atom_site_symmetry_multiplicity
 _atom_site_fract_x
 _atom_site_fract_y
 _atom_site_fract_z
 _atom_site_occupancy
  Ca  Ca0  1  0.99978628  0.51646048  0.23002451  1
  Ca  Ca1  1  0.99324999  0.52140750  0.72543561  1
  Ta  Ta2  1  0.99925550  0.98138705  0.49857296  1
  W  W3  1  -0.00027494  0.98100317  0.99933562  1
  O  O4  1  0.81678543  0.88860206  0.17003524  1
  O  O5  1  0.18467784  0.04675989  0.83280027  1
  O  O6  1  0.44106148  0.49676434  0.27533226  1
  O  O7  1  0.37193818  0.87133876  0.64390868  1
  O  O8  1  0.59961855  0.05748240  0.35531947  1
  O  O9  1  0.58175970  0.45966635  0.75305137  1
