# generated using pymatgen
data_CrPO5
_symmetry_space_group_name_H-M   'P 1'
_cell_length_a   5.12907721
_cell_length_b   7.91203306
_cell_length_c   7.62561187
_cell_angle_alpha   90.01484953
_cell_angle_beta   41.95437111
_cell_angle_gamma   70.28734132
_symmetry_Int_Tables_number   1
_chemical_formula_structural   CrPO5
_chemical_formula_sum   'Cr2 P2 O10'
_cell_volume   178.58722376
_cell_formula_units_Z   2
loop_
 _symmetry_equiv_pos_site_id
 _symmetry_equiv_pos_as_xyz
  1  'x, y, z'
loop_
 _atom_site_type_symbol
 _atom_site_label
 _atom_site_symmetry_multiplicity
 _atom_site_fract_x
 _atom_site_fract_y
 _atom_site_fract_z
 _atom_site_occupancy
  Cr  Cr0  1  0.49936319  0.52920456  0.02040324  1
  Cr  Cr1  1  0.49997720  0.02896069  0.97110771  1
  P  P2  1  0.49497629  0.23531060  0.32276559  1
  P  P3  1  0.49295216  0.73484881  0.67436293  1
  O  O4  1  0.33326044  0.12109535  0.28661324  1
  O  O5  1  0.66934621  0.34480433  0.12117188  1
  O  O6  1  0.66345138  0.84628589  0.70261442  1
  O  O7  1  0.32797769  0.62221328  0.87450818  1
  O  O8  1  0.89537178  0.58886746  0.35749959  1
  O  O9  1  0.10669850  0.86853629  0.74379723  1
  O  O10  1  0.10509627  0.37120009  0.63921798  1
  O  O11  1  0.89387439  0.09110702  0.24104568  1
  O  O12  1  0.50118554  0.71017176  0.10564061  1
  O  O13  1  0.50432398  0.20961585  0.88313671  1
