# generated using pymatgen
data_Zn3W2O7
_symmetry_space_group_name_H-M   'P 1'
_cell_length_a   5.38911956
_cell_length_b   5.44571023
_cell_length_c   9.83238446
_cell_angle_alpha   106.07689286
_cell_angle_beta   90.00000000
_cell_angle_gamma   90.00000000
_symmetry_Int_Tables_number   1
_chemical_formula_structural   Zn3W2O7
_chemical_formula_sum   'Zn6 W4 O14'
_cell_volume   277.27153499
_cell_formula_units_Z   2
loop_
 _symmetry_equiv_pos_site_id
 _symmetry_equiv_pos_as_xyz
  1  'x, y, z'
loop_
 _atom_site_type_symbol
 _atom_site_label
 _atom_site_symmetry_multiplicity
 _atom_site_fract_x
 _atom_site_fract_y
 _atom_site_fract_z
 _atom_site_occupancy
  Zn  Zn0  1  0.73950316  0.74026937  1.00000000  1
  Zn  Zn1  1  0.23950316  0.25973063  0.00000000  1
  Zn  Zn2  1  0.78155460  0.57826638  0.59308028  1
  Zn  Zn3  1  0.28155460  0.42173362  0.40691972  1
  Zn  Zn4  1  0.78155460  0.98518510  0.40691972  1
  Zn  Zn5  1  0.28155460  0.01481490  0.59308028  1
  W  W6  1  0.75725381  0.35626965  0.20689996  1
  W  W7  1  0.25725381  0.64373035  0.79310004  1
  W  W8  1  0.25725381  0.85063031  0.20689996  1
  W  W9  1  0.75725381  0.14936969  0.79310004  1
  O  O10  1  0.65662113  0.92915911  0.58946675  1
  O  O11  1  0.15662113  0.07084089  0.41053325  1
  O  O12  1  0.15662113  0.66030664  0.58946675  1
  O  O13  1  0.65662113  0.33969336  0.41053325  1
  O  O14  1  0.09429018  0.28965028  0.73439476  1
  O  O15  1  0.59429018  0.71034972  0.26560524  1
  O  O16  1  0.59429018  0.44474448  0.73439476  1
  O  O17  1  0.09429018  0.55525552  0.26560524  1
  O  O18  1  0.91920479  0.84838115  0.84688314  1
  O  O19  1  0.41920479  0.15161885  0.15311686  1
  O  O20  1  0.86264981  0.37612490  0.00000000  1
  O  O21  1  0.36264981  0.62387510  1.00000000  1
  O  O22  1  0.91920479  0.00149801  0.15311686  1
  O  O23  1  0.41920479  0.99850199  0.84688314  1
