# generated using pymatgen
data_MgCrO2
_symmetry_space_group_name_H-M   'P 1'
_cell_length_a   2.96751893
_cell_length_b   8.16770859
_cell_length_c   7.83876765
_cell_angle_alpha   98.20626797
_cell_angle_beta   90.00560481
_cell_angle_gamma   68.69083081
_symmetry_Int_Tables_number   1
_chemical_formula_structural   MgCrO2
_chemical_formula_sum   'Mg4 Cr4 O8'
_cell_volume   174.91657292
_cell_formula_units_Z   4
loop_
 _symmetry_equiv_pos_site_id
 _symmetry_equiv_pos_as_xyz
  1  'x, y, z'
loop_
 _atom_site_type_symbol
 _atom_site_label
 _atom_site_symmetry_multiplicity
 _atom_site_fract_x
 _atom_site_fract_y
 _atom_site_fract_z
 _atom_site_occupancy
  Mg  Mg0  1  0.20874361  0.02935903  0.18266416  1
  Mg  Mg1  1  0.78742746  0.95055264  0.84555164  1
  Mg  Mg2  1  0.06283797  0.67528533  0.07927456  1
  Mg  Mg3  1  0.93316521  0.30464244  0.94892927  1
  Cr  Cr4  1  0.55881073  0.17889386  0.57536082  1
  Cr  Cr5  1  0.34737854  0.39084949  0.29477231  1
  Cr  Cr6  1  0.64855176  0.58907145  0.73339373  1
  Cr  Cr7  1  0.43727548  0.80101031  0.45281783  1
  O  O8  1  0.00258539  0.73543557  0.62379453  1
  O  O9  1  0.27484088  0.46283097  0.85095794  1
  O  O10  1  0.72106534  0.51714965  0.17726105  1
  O  O11  1  0.99350429  0.24442465  0.40436095  1
  O  O12  1  0.13793768  0.09976295  0.73006095  1
  O  O13  1  0.57915712  0.15877464  0.05778979  1
  O  O14  1  0.85812832  0.88012329  0.29814316  1
  O  O15  1  0.41686522  0.82116770  0.97048329  1
