# generated using pymatgen
data_H5NO
_symmetry_space_group_name_H-M   'P 1'
_cell_length_a   5.08541142
_cell_length_b   6.19599230
_cell_length_c   7.83453360
_cell_angle_alpha   90.00000000
_cell_angle_beta   90.00000000
_cell_angle_gamma   90.00000000
_symmetry_Int_Tables_number   1
_chemical_formula_structural   H5NO
_chemical_formula_sum   'H20 N4 O4'
_cell_volume   246.85965108
_cell_formula_units_Z   4
loop_
 _symmetry_equiv_pos_site_id
 _symmetry_equiv_pos_as_xyz
  1  'x, y, z'
loop_
 _atom_site_type_symbol
 _atom_site_label
 _atom_site_symmetry_multiplicity
 _atom_site_fract_x
 _atom_site_fract_y
 _atom_site_fract_z
 _atom_site_occupancy
  H  H0  1  0.75083587  0.71571225  0.36168108  1
  H  H1  1  0.74254127  0.69905430  0.56357178  1
  H  H2  1  0.42055225  0.42303170  0.37429461  1
  H  H3  1  0.75999559  0.30381606  0.59395612  1
  H  H4  1  0.09619161  0.42187433  0.37606357  1
  H  H5  1  0.74916413  0.28428775  0.86168108  1
  H  H6  1  0.75745873  0.30094570  0.06357178  1
  H  H7  1  0.40380839  0.57812567  0.87606357  1
  H  H8  1  0.74000441  0.69618394  0.09395612  1
  H  H9  1  0.07944775  0.57696830  0.87429461  1
  H  H10  1  0.24254127  0.80094570  0.43642822  1
  H  H11  1  0.25083587  0.78428775  0.63831892  1
  H  H12  1  0.92055225  0.07696830  0.62570539  1
  H  H13  1  0.25999559  0.19618394  0.40604388  1
  H  H14  1  0.59619161  0.07812567  0.62393643  1
  H  H15  1  0.24916413  0.21571225  0.13831892  1
  H  H16  1  0.25745873  0.19905430  0.93642822  1
  H  H17  1  0.57944775  0.92303170  0.12570539  1
  H  H18  1  0.90380839  0.92187433  0.12393643  1
  H  H19  1  0.24000441  0.80381606  0.90604388  1
  N  N20  1  0.74173572  0.83636999  0.16375635  1
  N  N21  1  0.75826428  0.16363001  0.66375635  1
  N  N22  1  0.24173572  0.66363001  0.83624365  1
  N  N23  1  0.25826428  0.33636999  0.33624365  1
  O  O24  1  0.76209902  0.61006710  0.46157432  1
  O  O25  1  0.73790098  0.38993290  0.96157432  1
  O  O26  1  0.26209902  0.88993290  0.53842568  1
  O  O27  1  0.23790098  0.11006710  0.03842568  1
