# generated using pymatgen
data_CsNdNb2O7
_symmetry_space_group_name_H-M   'P 1'
_cell_length_a   5.50021709
_cell_length_b   5.56824211
_cell_length_c   11.46714332
_cell_angle_alpha   90.00000000
_cell_angle_beta   90.00000000
_cell_angle_gamma   90.00000000
_symmetry_Int_Tables_number   1
_chemical_formula_structural   CsNdNb2O7
_chemical_formula_sum   'Cs2 Nd2 Nb4 O14'
_cell_volume   351.19892833
_cell_formula_units_Z   2
loop_
 _symmetry_equiv_pos_site_id
 _symmetry_equiv_pos_as_xyz
  1  'x, y, z'
loop_
 _atom_site_type_symbol
 _atom_site_label
 _atom_site_symmetry_multiplicity
 _atom_site_fract_x
 _atom_site_fract_y
 _atom_site_fract_z
 _atom_site_occupancy
  Cs  Cs0  1  0.73933506  0.74864845  0.50000000  1
  Cs  Cs1  1  0.26066494  0.24864845  0.50000000  1
  Nd  Nd2  1  0.25043637  0.28180581  0.00000000  1
  Nd  Nd3  1  0.74956363  0.78180581  0.00000000  1
  Nb  Nb4  1  0.74886370  0.24157939  0.20031883  1
  Nb  Nb5  1  0.74886370  0.24157939  0.79968117  1
  Nb  Nb6  1  0.25113630  0.74157939  0.79968117  1
  Nb  Nb7  1  0.25113630  0.74157939  0.20031883  1
  O  O8  1  0.03393918  0.01060839  0.85805986  1
  O  O9  1  0.67081888  0.20679564  0.00000000  1
  O  O10  1  0.32918112  0.70679564  0.00000000  1
  O  O11  1  0.80157138  0.24750296  0.64499775  1
  O  O12  1  0.55373241  0.92633430  0.80949129  1
  O  O13  1  0.19842862  0.74750296  0.64499775  1
  O  O14  1  0.96606082  0.51060839  0.85805986  1
  O  O15  1  0.44626759  0.42633430  0.80949129  1
  O  O16  1  0.03393918  0.01060839  0.14194014  1
  O  O17  1  0.44626759  0.42633430  0.19050871  1
  O  O18  1  0.80157138  0.24750296  0.35500225  1
  O  O19  1  0.96606082  0.51060839  0.14194014  1
  O  O20  1  0.55373241  0.92633430  0.19050871  1
  O  O21  1  0.19842862  0.74750296  0.35500225  1
