# generated using pymatgen
data_K2ZnH4(I2O7)2
_symmetry_space_group_name_H-M   'P 1'
_cell_length_a   7.78372428
_cell_length_b   8.01567105
_cell_length_c   8.06845230
_cell_angle_alpha   117.41077096
_cell_angle_beta   118.83935512
_cell_angle_gamma   60.95268824
_symmetry_Int_Tables_number   1
_chemical_formula_structural   K2ZnH4(I2O7)2
_chemical_formula_sum   'K2 Zn1 H4 I4 O14'
_cell_volume   368.30862974
_cell_formula_units_Z   1
loop_
 _symmetry_equiv_pos_site_id
 _symmetry_equiv_pos_as_xyz
  1  'x, y, z'
loop_
 _atom_site_type_symbol
 _atom_site_label
 _atom_site_symmetry_multiplicity
 _atom_site_fract_x
 _atom_site_fract_y
 _atom_site_fract_z
 _atom_site_occupancy
  K  K0  1  0.02426170  0.00000000  0.00000000  1
  K  K1  1  0.50005876  0.00000000  0.00000000  1
  Zn  Zn2  1  0.95857892  0.50000000  0.50000000  1
  H  H3  1  0.57689381  0.46792876  0.37439141  1
  H  H4  1  0.33898683  0.37517370  0.47100938  1
  H  H5  1  0.24315116  0.62482530  0.52898962  1
  H  H6  1  0.67043115  0.53207224  0.62560859  1
  I  I7  1  0.52866794  0.49232353  0.01656231  1
  I  I8  1  0.00513514  0.03549378  0.48326691  1
  I  I9  1  0.55736202  0.96450622  0.51673409  1
  I  I10  1  0.00443017  0.50767547  0.98343769  1
  O  O11  1  0.43611943  0.41691781  0.13514449  1
  O  O12  1  0.44152856  0.76368619  0.13117152  1
  O  O13  1  0.80741586  0.41845837  0.16858658  1
  O  O14  1  0.92892161  0.89422678  0.21922158  1
  O  O15  1  0.51317127  0.14857353  0.41361487  1
  O  O16  1  0.11944411  0.18145420  0.46554786  1
  O  O17  1  0.21952975  0.50000000  0.50000000  1
  O  O18  1  0.69307303  0.50000000  0.50000000  1
  O  O19  1  0.83535045  0.81854380  0.53445114  1
  O  O20  1  0.24813093  0.85142547  0.58638613  1
  O  O21  1  0.60392681  0.10577422  0.78077842  1
  O  O22  1  0.05728764  0.58154263  0.83141442  1
  O  O23  1  0.07404324  0.23631481  0.86882848  1
  O  O24  1  0.71789274  0.58308119  0.86485551  1
