# generated using pymatgen
data_TiFeO3
_symmetry_space_group_name_H-M   'P 1'
_cell_length_a   5.53240020
_cell_length_b   5.53240020
_cell_length_c   5.53240020
_cell_angle_alpha   56.12530284
_cell_angle_beta   56.12530284
_cell_angle_gamma   56.12530281
_symmetry_Int_Tables_number   1
_chemical_formula_structural   TiFeO3
_chemical_formula_sum   'Ti2 Fe2 O6'
_cell_volume   108.99422841
_cell_formula_units_Z   2
loop_
 _symmetry_equiv_pos_site_id
 _symmetry_equiv_pos_as_xyz
  1  'x, y, z'
loop_
 _atom_site_type_symbol
 _atom_site_label
 _atom_site_symmetry_multiplicity
 _atom_site_fract_x
 _atom_site_fract_y
 _atom_site_fract_z
 _atom_site_occupancy
  O  O0  1  0.56815704  0.18321671  0.93399094  1
  O  O1  1  0.18321608  0.93399117  0.56815732  1
  O  O2  1  0.93399073  0.56815647  0.18321727  1
  O  O3  1  0.43399167  0.68321660  0.06815702  1
  O  O4  1  0.06815724  0.43399006  0.68321739  1
  O  O5  1  0.68321778  0.06815773  0.43399021  1
  Ti  Ti6  1  0.28896558  0.28896698  0.28896606  1
  Ti  Ti7  1  0.78896495  0.78896694  0.78896572  1
  Fe  Fe8  1  0.00266980  0.00267012  0.00266961  1
  Fe  Fe9  1  0.50267043  0.50267016  0.50266994  1
