# generated using pymatgen
data_Mn2FeO4
_symmetry_space_group_name_H-M   'P 1'
_cell_length_a   6.27036023
_cell_length_b   6.27036023
_cell_length_c   6.27036023
_cell_angle_alpha   123.75919974
_cell_angle_beta   123.75919974
_cell_angle_gamma   83.60354402
_symmetry_Int_Tables_number   1
_chemical_formula_structural   Mn2FeO4
_chemical_formula_sum   'Mn4 Fe2 O8'
_cell_volume   163.30586889
_cell_formula_units_Z   2
loop_
 _symmetry_equiv_pos_site_id
 _symmetry_equiv_pos_as_xyz
  1  'x, y, z'
loop_
 _atom_site_type_symbol
 _atom_site_label
 _atom_site_symmetry_multiplicity
 _atom_site_fract_x
 _atom_site_fract_y
 _atom_site_fract_z
 _atom_site_occupancy
  Mn  Mn0  1  0.87500000  0.62500000  0.25000000  1
  Mn  Mn1  1  0.37500000  0.62500000  0.25000000  1
  Mn  Mn2  1  0.37500000  0.12500000  0.75000000  1
  Mn  Mn3  1  0.37500000  0.62500000  0.75000000  1
  Fe  Fe4  1  0.00000000  0.00000000  0.00000000  1
  Fe  Fe5  1  0.75000000  0.25000000  0.50000000  1
  O  O6  1  0.60298592  0.38026436  0.22272156  1
  O  O7  1  0.61973564  0.84245821  0.22272156  1
  O  O8  1  0.13026436  0.40754179  0.27727844  1
  O  O9  1  0.61973564  0.39701408  0.77727844  1
  O  O10  1  0.59245821  0.86973564  0.72272156  1
  O  O11  1  0.15754179  0.38026436  0.77727844  1
  O  O12  1  0.14701408  0.86973564  0.27727844  1
  O  O13  1  0.13026436  0.85298592  0.72272156  1
