# generated using pymatgen
data_LiV(TeO4)3
_symmetry_space_group_name_H-M   'P 1'
_cell_length_a   5.31244078
_cell_length_b   10.60480227
_cell_length_c   9.33810913
_cell_angle_alpha   28.31890294
_cell_angle_beta   51.76393363
_cell_angle_gamma   56.95652841
_symmetry_Int_Tables_number   1
_chemical_formula_structural   LiV(TeO4)3
_chemical_formula_sum   'Li1 V1 Te3 O12'
_cell_volume   196.02373905
_cell_formula_units_Z   1
loop_
 _symmetry_equiv_pos_site_id
 _symmetry_equiv_pos_as_xyz
  1  'x, y, z'
loop_
 _atom_site_type_symbol
 _atom_site_label
 _atom_site_symmetry_multiplicity
 _atom_site_fract_x
 _atom_site_fract_y
 _atom_site_fract_z
 _atom_site_occupancy
  Li  Li0  1  0.27197806  0.49718054  0.29881363  1
  V  V1  1  0.98093306  0.00245140  0.01435010  1
  Te  Te2  1  0.50515847  0.50381308  0.49612661  1
  Te  Te3  1  0.49257827  0.00572979  0.49751102  1
  Te  Te4  1  0.00547031  0.49850702  0.99484290  1
  O  O5  1  0.38928140  0.32045637  0.10436470  1
  O  O6  1  0.24875993  0.12646988  0.61946314  1
  O  O7  1  0.14483083  0.30040221  0.74350282  1
  O  O8  1  0.89011330  0.18222320  0.24156700  1
  O  O9  1  0.34918939  0.79379038  0.14307792  1
  O  O10  1  0.73531530  0.37022932  0.37474319  1
  O  O11  1  0.24283315  0.63916206  0.60968328  1
  O  O12  1  0.64063126  0.18859697  0.86558273  1
  O  O13  1  0.11421950  0.81498042  0.75063674  1
  O  O14  1  0.87356466  0.69133660  0.24541136  1
  O  O15  1  0.74682038  0.88629004  0.36214855  1
  O  O16  1  0.61452473  0.67837974  0.88437531  1
