# generated using pymatgen
data_Ir2S3
_symmetry_space_group_name_H-M   'P 1'
_cell_length_a   6.02780505
_cell_length_b   6.02780693
_cell_length_c   6.34019564
_cell_angle_alpha   118.38308141
_cell_angle_beta   61.61691372
_cell_angle_gamma   120.00000617
_symmetry_Int_Tables_number   1
_chemical_formula_structural   Ir2S3
_chemical_formula_sum   'Ir4 S6'
_cell_volume   166.76260470
_cell_formula_units_Z   2
loop_
 _symmetry_equiv_pos_site_id
 _symmetry_equiv_pos_as_xyz
  1  'x, y, z'
loop_
 _atom_site_type_symbol
 _atom_site_label
 _atom_site_symmetry_multiplicity
 _atom_site_fract_x
 _atom_site_fract_y
 _atom_site_fract_z
 _atom_site_occupancy
  Ir  Ir0  1  0.64829779  0.35170321  0.05510862  1
  Ir  Ir1  1  0.85170121  0.14829779  0.44489338  1
  Ir  Ir2  1  0.14829679  0.85170121  0.55510762  1
  Ir  Ir3  1  0.35170321  0.64829779  0.94489238  1
  S  S4  1  0.54649805  0.74999900  0.25000100  1
  S  S5  1  0.24999900  0.04649905  0.25000100  1
  S  S6  1  0.95350095  0.45350195  0.25000100  1
  S  S7  1  0.04649705  0.54649705  0.75000000  1
  S  S8  1  0.75000000  0.95350195  0.75000000  1
  S  S9  1  0.45350195  0.25000000  0.75000000  1
