# generated using pymatgen
data_InPS4
_symmetry_space_group_name_H-M   'P 1'
_cell_length_a   5.77212914
_cell_length_b   5.77212914
_cell_length_c   6.17524933
_cell_angle_alpha   117.86306489
_cell_angle_beta   117.86306493
_cell_angle_gamma   89.99999996
_symmetry_Int_Tables_number   1
_chemical_formula_structural   InPS4
_chemical_formula_sum   'In1 P1 S4'
_cell_volume   154.39681225
_cell_formula_units_Z   1
loop_
 _symmetry_equiv_pos_site_id
 _symmetry_equiv_pos_as_xyz
  1  'x, y, z'
loop_
 _atom_site_type_symbol
 _atom_site_label
 _atom_site_symmetry_multiplicity
 _atom_site_fract_x
 _atom_site_fract_y
 _atom_site_fract_z
 _atom_site_occupancy
  P  P0  1  0.75000000  0.25000000  0.50000000  1
  S  S1  1  0.43710107  0.36323232  0.26360061  1
  S  S2  1  0.82649953  0.90036828  0.26360061  1
  S  S3  1  0.09963172  0.56289893  0.73639939  1
  S  S4  1  0.63676768  0.17350047  0.73639939  1
  In  In5  1  0.00000000  0.00000000  0.00000000  1
