# generated using pymatgen
data_PdPtF6
_symmetry_space_group_name_H-M   'P 1'
_cell_length_a   5.67341274
_cell_length_b   5.67341274
_cell_length_c   5.67341274
_cell_angle_alpha   54.43095008
_cell_angle_beta   54.43095011
_cell_angle_gamma   54.43095010
_symmetry_Int_Tables_number   1
_chemical_formula_structural   PdPtF6
_chemical_formula_sum   'Pd1 Pt1 F6'
_cell_volume   112.35776643
_cell_formula_units_Z   1
loop_
 _symmetry_equiv_pos_site_id
 _symmetry_equiv_pos_as_xyz
  1  'x, y, z'
loop_
 _atom_site_type_symbol
 _atom_site_label
 _atom_site_symmetry_multiplicity
 _atom_site_fract_x
 _atom_site_fract_y
 _atom_site_fract_z
 _atom_site_occupancy
  F  F0  1  0.10961277  0.41928939  0.73199487  1
  F  F1  1  0.41928939  0.73199487  0.10961277  1
  F  F2  1  0.26800513  0.89038723  0.58071061  1
  F  F3  1  0.58071061  0.26800513  0.89038723  1
  F  F4  1  0.89038723  0.58071061  0.26800513  1
  F  F5  1  0.73199487  0.10961277  0.41928939  1
  Pd  Pd6  1  0.00000000  0.00000000  0.00000000  1
  Pt  Pt7  1  0.50000000  0.50000000  0.50000000  1
