# generated using pymatgen
data_Sr6Y2Al4O15
_symmetry_space_group_name_H-M   'P 1'
_cell_length_a   5.79895205
_cell_length_b   9.34672452
_cell_length_c   7.77352681
_cell_angle_alpha   90.61308472
_cell_angle_beta   90.00000000
_cell_angle_gamma   108.07207104
_symmetry_Int_Tables_number   1
_chemical_formula_structural   Sr6Y2Al4O15
_chemical_formula_sum   'Sr6 Y2 Al4 O15'
_cell_volume   400.52349352
_cell_formula_units_Z   1
loop_
 _symmetry_equiv_pos_site_id
 _symmetry_equiv_pos_as_xyz
  1  'x, y, z'
loop_
 _atom_site_type_symbol
 _atom_site_label
 _atom_site_symmetry_multiplicity
 _atom_site_fract_x
 _atom_site_fract_y
 _atom_site_fract_z
 _atom_site_occupancy
  Sr  Sr0  1  0.68735127  0.34457384  0.50434641  1
  Sr  Sr1  1  0.34277743  0.65542616  0.49565359  1
  Sr  Sr2  1  0.69109218  0.31821050  0.96550842  1
  Sr  Sr3  1  0.37288168  0.68178950  0.03449158  1
  Sr  Sr4  1  0.97393516  0.00000000  0.00000000  1
  Sr  Sr5  1  0.90481103  0.00000000  0.50000000  1
  Y  Y6  1  0.84988910  0.68526681  0.75321649  1
  Y  Y7  1  0.16462229  0.31473319  0.24678351  1
  Al  Al8  1  0.82778420  0.61879548  0.24461932  1
  Al  Al9  1  0.20898872  0.38120452  0.75538068  1
  Al  Al10  1  0.48182927  0.02700391  0.22639218  1
  Al  Al11  1  0.45482536  0.97299609  0.77360782  1
  O  O12  1  0.86231455  0.72537138  0.05168119  1
  O  O13  1  0.13694317  0.27462862  0.94831881  1
  O  O14  1  0.04658433  0.52074547  0.23565550  1
  O  O15  1  0.52583885  0.47925453  0.76434450  1
  O  O16  1  0.53424646  0.47999149  0.22777921  1
  O  O17  1  0.05425497  0.52000851  0.77222079  1
  O  O18  1  0.75941669  0.17812492  0.25679697  1
  O  O19  1  0.58129177  0.82187508  0.74320303  1
  O  O20  1  0.22709312  0.08699498  0.27278501  1
  O  O21  1  0.14009814  0.91300502  0.72721499  1
  O  O22  1  0.51226949  0.86041766  0.30870396  1
  O  O23  1  0.65185183  0.13958234  0.69129604  1
  O  O24  1  0.84691816  0.68373841  0.46259163  1
  O  O25  1  0.16317975  0.31626159  0.53740837  1
  O  O26  1  0.46771106  0.00000000  0.00000000  1
