# generated using pymatgen
data_Y2P4O13
_symmetry_space_group_name_H-M   'P 1'
_cell_length_a   7.12864299
_cell_length_b   8.65822261
_cell_length_c   9.48734272
_cell_angle_alpha   90.00000000
_cell_angle_beta   112.06710697
_cell_angle_gamma   90.00000000
_symmetry_Int_Tables_number   1
_chemical_formula_structural   Y2P4O13
_chemical_formula_sum   'Y4 P8 O26'
_cell_volume   542.67548478
_cell_formula_units_Z   2
loop_
 _symmetry_equiv_pos_site_id
 _symmetry_equiv_pos_as_xyz
  1  'x, y, z'
loop_
 _atom_site_type_symbol
 _atom_site_label
 _atom_site_symmetry_multiplicity
 _atom_site_fract_x
 _atom_site_fract_y
 _atom_site_fract_z
 _atom_site_occupancy
  O  O0  1  0.48132982  0.35534511  0.45678557  1
  O  O1  1  0.02454426  0.14465489  0.54321443  1
  O  O2  1  0.51867018  0.85534511  0.54321443  1
  O  O3  1  0.97545574  0.64465489  0.45678557  1
  O  O4  1  0.22746027  0.15143344  0.29649147  1
  O  O5  1  0.93096879  0.34856656  0.70350853  1
  O  O6  1  0.77253973  0.65143344  0.70350853  1
  O  O7  1  0.06903121  0.84856656  0.29649147  1
  O  O8  1  0.57858218  0.13333023  0.31627735  1
  O  O9  1  0.26230483  0.36666977  0.68372265  1
  O  O10  1  0.42141782  0.63333023  0.68372265  1
  O  O11  1  0.73769517  0.86666977  0.31627735  1
  O  O12  1  0.08244521  0.50000000  0.16489042  1
  O  O13  1  0.91755479  0.00000000  0.83510958  1
  O  O14  1  0.79016853  0.64377008  0.16983188  1
  O  O15  1  0.62033666  0.85622992  0.83016812  1
  O  O16  1  0.20983147  0.14377008  0.83016812  1
  O  O17  1  0.37966334  0.35622992  0.16983188  1
  O  O18  1  0.73315292  0.45479280  0.95782214  1
  O  O19  1  0.77533078  0.04520720  0.04217786  1
  O  O20  1  0.26684708  0.95479280  0.04217786  1
  O  O21  1  0.22466922  0.54520720  0.95782214  1
  O  O22  1  0.82951977  0.35338497  0.22996580  1
  O  O23  1  0.59955397  0.14661503  0.77003420  1
  O  O24  1  0.17048023  0.85338497  0.77003420  1
  O  O25  1  0.40044603  0.64661503  0.22996580  1
  P  P26  1  0.41782283  0.25030571  0.32004004  1
  P  P27  1  0.09778279  0.24969429  0.67995996  1
  P  P28  1  0.58217717  0.75030571  0.67995996  1
  P  P29  1  0.90221721  0.74969429  0.32004004  1
  P  P30  1  0.27761176  0.52292791  0.12473919  1
  P  P31  1  0.15287257  0.97707209  0.87526081  1
  P  P32  1  0.72238824  0.02292791  0.87526081  1
  P  P33  1  0.84712743  0.47707209  0.12473919  1
  Y  Y34  1  0.89545468  0.10381884  0.29302609  1
  Y  Y35  1  0.60242859  0.39618116  0.70697391  1
  Y  Y36  1  0.10454532  0.60381884  0.70697391  1
  Y  Y37  1  0.39757141  0.89618116  0.29302609  1
