# generated using pymatgen
data_H3ClO5
_symmetry_space_group_name_H-M   'P 1'
_cell_length_a   9.67274581
_cell_length_b   5.66957747
_cell_length_c   7.53069978
_cell_angle_alpha   90.00000000
_cell_angle_beta   90.00000000
_cell_angle_gamma   90.00000000
_symmetry_Int_Tables_number   1
_chemical_formula_structural   H3ClO5
_chemical_formula_sum   'H12 Cl4 O20'
_cell_volume   412.98645053
_cell_formula_units_Z   4
loop_
 _symmetry_equiv_pos_site_id
 _symmetry_equiv_pos_as_xyz
  1  'x, y, z'
loop_
 _atom_site_type_symbol
 _atom_site_label
 _atom_site_symmetry_multiplicity
 _atom_site_fract_x
 _atom_site_fract_y
 _atom_site_fract_z
 _atom_site_occupancy
  H  H0  1  0.72653283  0.97523645  0.37766379  1
  H  H1  1  0.22653283  0.97523645  0.12233621  1
  H  H2  1  0.27346717  0.47523645  0.62233521  1
  H  H3  1  0.77346717  0.47523645  0.87766479  1
  H  H4  1  0.25972189  0.71236442  0.21041831  1
  H  H5  1  0.15709578  0.72876744  0.03559385  1
  H  H6  1  0.75972189  0.71236442  0.28958169  1
  H  H7  1  0.65709578  0.72876744  0.46440615  1
  H  H8  1  0.74027811  0.21236442  0.78958169  1
  H  H9  1  0.84290422  0.22876744  0.96440615  1
  H  H10  1  0.24027811  0.21236442  0.71041831  1
  H  H11  1  0.34290422  0.22876744  0.53559385  1
  Cl  Cl12  1  0.90592209  0.27409776  0.29334320  1
  Cl  Cl13  1  0.40592209  0.27409776  0.20665680  1
  Cl  Cl14  1  0.09407791  0.77409776  0.70665680  1
  Cl  Cl15  1  0.59407791  0.77409776  0.79334320  1
  O  O16  1  0.78992348  0.21997403  0.41560061  1
  O  O17  1  0.28992348  0.21997403  0.08439939  1
  O  O18  1  0.21007652  0.71997403  0.58439939  1
  O  O19  1  0.71007652  0.71997403  0.91560061  1
  O  O20  1  0.03547588  0.24601097  0.38182583  1
  O  O21  1  0.53547588  0.24601097  0.11817417  1
  O  O22  1  0.96452412  0.74601097  0.61817417  1
  O  O23  1  0.46452412  0.74601097  0.88182583  1
  O  O24  1  0.89677017  0.10908966  0.14056413  1
  O  O25  1  0.38843875  0.51505330  0.27374569  1
  O  O26  1  0.10322983  0.60908966  0.85943587  1
  O  O27  1  0.61156125  0.01505330  0.72625431  1
  O  O28  1  0.11156125  0.01505330  0.77374569  1
  O  O29  1  0.60322983  0.60908966  0.64056413  1
  O  O30  1  0.88843875  0.51505330  0.22625431  1
  O  O31  1  0.39677017  0.10908966  0.35943587  1
  O  O32  1  0.18733521  0.81033597  0.15050258  1
  O  O33  1  0.68733521  0.81033597  0.34949742  1
  O  O34  1  0.81266479  0.31033597  0.84949742  1
  O  O35  1  0.31266479  0.31033597  0.65050258  1
