# generated using pymatgen
data_TlSbSe2
_symmetry_space_group_name_H-M   'P 1'
_cell_length_a   9.25405454
_cell_length_b   4.15243112
_cell_length_c   13.28633800
_cell_angle_alpha   90.00000000
_cell_angle_beta   112.09791076
_cell_angle_gamma   90.00000000
_symmetry_Int_Tables_number   1
_chemical_formula_structural   TlSbSe2
_chemical_formula_sum   'Tl4 Sb4 Se8'
_cell_volume   473.04783889
_cell_formula_units_Z   4
loop_
 _symmetry_equiv_pos_site_id
 _symmetry_equiv_pos_as_xyz
  1  'x, y, z'
loop_
 _atom_site_type_symbol
 _atom_site_label
 _atom_site_symmetry_multiplicity
 _atom_site_fract_x
 _atom_site_fract_y
 _atom_site_fract_z
 _atom_site_occupancy
  Tl  Tl0  1  0.45431553  0.74885514  0.13817456  1
  Tl  Tl1  1  0.54568447  0.24885514  0.86182544  1
  Tl  Tl2  1  0.30210343  0.73902289  0.35918632  1
  Tl  Tl3  1  0.69789657  0.23902289  0.64081368  1
  Sb  Sb4  1  0.92427282  0.74722152  0.10801878  1
  Sb  Sb5  1  0.07572718  0.24722152  0.89198122  1
  Sb  Sb6  1  0.81092900  0.74055548  0.39162597  1
  Sb  Sb7  1  0.18907100  0.24055548  0.60837403  1
  Se  Se8  1  0.83603997  0.74529946  0.89566478  1
  Se  Se9  1  0.16396003  0.24529946  0.10433522  1
  Se  Se10  1  0.95178944  0.74242137  0.60374640  1
  Se  Se11  1  0.04821056  0.24242137  0.39625360  1
  Se  Se12  1  0.27252289  0.74560676  0.88253243  1
  Se  Se13  1  0.72747711  0.24560676  0.11746757  1
  Se  Se14  1  0.39716727  0.74271736  0.60774568  1
  Se  Se15  1  0.60283273  0.24271736  0.39225432  1
