# generated using pymatgen
data_Ag2S
_symmetry_space_group_name_H-M   'P 1'
_cell_length_a   4.34521100
_cell_length_b   5.89856393
_cell_length_c   6.36933693
_cell_angle_alpha   90.00000000
_cell_angle_beta   116.27818295
_cell_angle_gamma   90.00000000
_symmetry_Int_Tables_number   1
_chemical_formula_structural   Ag2S
_chemical_formula_sum   'Ag4 S2'
_cell_volume   146.37833282
_cell_formula_units_Z   2
loop_
 _symmetry_equiv_pos_site_id
 _symmetry_equiv_pos_as_xyz
  1  'x, y, z'
loop_
 _atom_site_type_symbol
 _atom_site_label
 _atom_site_symmetry_multiplicity
 _atom_site_fract_x
 _atom_site_fract_y
 _atom_site_fract_z
 _atom_site_occupancy
  S  S0  1  0.51037175  0.77118527  0.80453503  1
  S  S1  1  0.48962825  0.27118527  0.19546497  1
  Ag  Ag2  1  0.91455775  0.45417495  1.00863223  1
  Ag  Ag3  1  0.08544225  0.95417495  -0.00863223  1
  Ag  Ag4  1  0.47444291  0.52463978  0.49124476  1
  Ag  Ag5  1  0.52555709  0.02463978  0.50875524  1
