# generated using pymatgen
data_NaH9O5
_symmetry_space_group_name_H-M   'P 1'
_cell_length_a   7.59705535
_cell_length_b   8.08565242
_cell_length_c   9.65767122
_cell_angle_alpha   64.06311838
_cell_angle_beta   116.39477080
_cell_angle_gamma   147.44758780
_symmetry_Int_Tables_number   1
_chemical_formula_structural   NaH9O5
_chemical_formula_sum   'Na2 H18 O10'
_cell_volume   283.50316786
_cell_formula_units_Z   2
loop_
 _symmetry_equiv_pos_site_id
 _symmetry_equiv_pos_as_xyz
  1  'x, y, z'
loop_
 _atom_site_type_symbol
 _atom_site_label
 _atom_site_symmetry_multiplicity
 _atom_site_fract_x
 _atom_site_fract_y
 _atom_site_fract_z
 _atom_site_occupancy
  Na  Na0  1  0.50862139  0.38774487  0.89400432  1
  Na  Na1  1  0.46500779  0.57436468  0.13320448  1
  H  H2  1  0.57149249  0.86414212  0.78752434  1
  H  H3  1  0.86933843  0.39159633  0.63550976  1
  H  H4  1  0.12802225  0.60655120  0.36648011  1
  H  H5  1  0.43734875  0.14085491  0.21981684  1
  H  H6  1  0.94554481  0.45673034  0.98147560  1
  H  H7  1  0.75739565  0.27340792  0.83529065  1
  H  H8  1  0.25336708  0.73489411  0.16549569  1
  H  H9  1  0.45887510  0.94074369  0.01996638  1
  H  H10  1  0.21267884  0.49689934  0.79626760  1
  H  H11  1  0.79956226  0.50893715  0.20561603  1
  H  H12  1  0.86697787  0.90764386  0.73447225  1
  H  H13  1  0.09300378  0.96824095  0.67607743  1
  H  H14  1  0.05770622  0.05842514  0.22000326  1
  H  H15  1  0.90430505  0.03646747  0.31851378  1
  H  H16  1  0.12101120  0.91376070  0.49453910  1
  H  H17  1  0.39258973  0.00311665  0.64461271  1
  H  H18  1  0.60463032  0.99146581  0.35863847  1
  H  H19  1  0.89875967  0.10369772  0.50251278  1
  O  O20  1  0.80200958  0.23138207  0.72301188  1
  O  O21  1  0.19935379  0.76776677  0.27892074  1
  O  O22  1  0.71938834  0.28489003  0.92046757  1
  O  O23  1  0.29782418  0.72714742  0.08219291  1
  O  O24  1  0.45775581  0.65767458  0.84197574  1
  O  O25  1  0.55228386  0.34628991  0.16213086  1
  O  O26  1  0.07825428  0.06510812  0.70356666  1
  O  O27  1  0.92573019  0.93800676  0.30063053  1
  O  O28  1  0.15773084  0.87175307  0.60950498  1
  O  O29  1  0.84221045  0.12907627  0.38757654  1
