# generated using pymatgen
data_Y(PO3)3
_symmetry_space_group_name_H-M   'P 1'
_cell_length_a   6.93832212
_cell_length_b   8.04316635
_cell_length_c   8.94506659
_cell_angle_alpha   73.99765793
_cell_angle_beta   67.18048573
_cell_angle_gamma   64.44877793
_symmetry_Int_Tables_number   1
_chemical_formula_structural   Y(PO3)3
_chemical_formula_sum   'Y2 P6 O18'
_cell_volume   411.57670804
_cell_formula_units_Z   2
loop_
 _symmetry_equiv_pos_site_id
 _symmetry_equiv_pos_as_xyz
  1  'x, y, z'
loop_
 _atom_site_type_symbol
 _atom_site_label
 _atom_site_symmetry_multiplicity
 _atom_site_fract_x
 _atom_site_fract_y
 _atom_site_fract_z
 _atom_site_occupancy
  Y  Y0  1  0.79481812  0.14983707  0.74990373  1
  Y  Y1  1  0.30544109  0.64983707  0.24990373  1
  P  P2  1  0.80919897  0.67663856  0.91265583  1
  P  P3  1  0.60150664  0.17663856  0.41265583  1
  P  P4  1  0.22005629  0.39582466  0.00850622  1
  P  P5  1  0.37561282  0.89582466  0.50850622  1
  P  P6  1  0.00315387  0.11528608  0.08508538  1
  P  P7  1  0.79647468  0.61528608  0.58508538  1
  O  O8  1  0.06496304  0.55709356  0.90838205  1
  O  O9  1  0.46956134  0.05709356  0.40838205  1
  O  O10  1  0.08251164  0.26282926  0.11254442  1
  O  O11  1  0.54211469  0.76282926  0.61254442  1
  O  O12  1  0.80044720  0.12264578  0.24846843  1
  O  O13  1  0.82843858  0.62264578  0.74846843  1
  O  O14  1  0.77104273  0.87846143  0.89242879  1
  O  O15  1  0.45806705  0.37846143  0.39242879  1
  O  O16  1  0.64933754  0.60500623  0.05597104  1
  O  O17  1  0.68968519  0.10500623  0.55597104  1
  O  O18  1  0.43190212  0.29319951  0.88616884  1
  O  O19  1  0.38872952  0.79319951  0.38616884  1
  O  O20  1  0.23834035  0.48080348  0.12913068  1
  O  O21  1  0.15172548  0.98080348  0.62913068  1
  O  O22  1  0.92011481  0.18431197  0.93912777  1
  O  O23  1  0.95644545  0.68431197  0.43912777  1
  O  O24  1  0.17856588  0.92336240  0.09412683  1
  O  O25  1  0.80394489  0.42336240  0.59412683  1
