# generated using pymatgen
data_BaZnSiO4
_symmetry_space_group_name_H-M   'P 1'
_cell_length_a   9.22598374
_cell_length_b   9.22598393
_cell_length_c   8.86855472
_cell_angle_alpha   90.00000000
_cell_angle_beta   90.00000000
_cell_angle_gamma   119.99999933
_symmetry_Int_Tables_number   1
_chemical_formula_structural   BaZnSiO4
_chemical_formula_sum   'Ba6 Zn6 Si6 O24'
_cell_volume   653.74572691
_cell_formula_units_Z   6
loop_
 _symmetry_equiv_pos_site_id
 _symmetry_equiv_pos_as_xyz
  1  'x, y, z'
loop_
 _atom_site_type_symbol
 _atom_site_label
 _atom_site_symmetry_multiplicity
 _atom_site_fract_x
 _atom_site_fract_y
 _atom_site_fract_z
 _atom_site_occupancy
  Ba  Ba0  1  0.66666700  0.33333300  0.22755746  1
  Ba  Ba1  1  0.66666700  0.33333300  0.73060107  1
  Ba  Ba2  1  0.33333300  0.66666700  0.23060107  1
  Ba  Ba3  1  0.00000000  0.00000000  0.24743294  1
  Ba  Ba4  1  0.33333300  0.66666700  0.72755746  1
  Ba  Ba5  1  0.00000000  0.00000000  0.74743294  1
  Zn  Zn6  1  0.67688864  0.66719740  0.53569887  1
  Zn  Zn7  1  0.32311136  0.33280260  0.03569887  1
  Zn  Zn8  1  0.66719740  0.99030876  0.03569887  1
  Zn  Zn9  1  0.33280260  0.00969124  0.53569887  1
  Zn  Zn10  1  0.99030876  0.32311136  0.53569887  1
  Zn  Zn11  1  0.00969124  0.67688864  0.03569887  1
  Si  Si12  1  0.66129461  0.98835658  0.43502702  1
  Si  Si13  1  0.01164342  0.67293803  0.43502702  1
  Si  Si14  1  0.98835658  0.32706197  0.93502702  1
  Si  Si15  1  0.33870539  0.01164342  0.93502702  1
  Si  Si16  1  0.32706197  0.33870539  0.43502702  1
  Si  Si17  1  0.67293803  0.66129461  0.93502702  1
  O  O18  1  0.28864229  0.34940849  0.25535668  1
  O  O19  1  0.53284316  0.09815639  0.99813894  1
  O  O20  1  0.23937670  0.80636538  0.95651887  1
  O  O21  1  0.09012524  0.85692814  0.51839579  1
  O  O22  1  0.76680290  0.90987476  0.51839579  1
  O  O23  1  0.85692814  0.76680290  0.01839579  1
  O  O24  1  0.80636538  0.56698869  0.45651887  1
  O  O25  1  0.56531323  0.46715684  0.99813894  1
  O  O26  1  0.14307186  0.23319710  0.51839579  1
  O  O27  1  0.09815639  0.56531323  0.49813894  1
  O  O28  1  0.90987476  0.14307186  0.01839579  1
  O  O29  1  0.06076620  0.71135771  0.25535668  1
  O  O30  1  0.19363462  0.43301131  0.95651887  1
  O  O31  1  0.71135771  0.65059151  0.75535668  1
  O  O32  1  0.76062330  0.19363462  0.45651887  1
  O  O33  1  0.43468677  0.53284316  0.49813894  1
  O  O34  1  0.34940849  0.06076620  0.75535668  1
  O  O35  1  0.43301131  0.23937670  0.45651887  1
  O  O36  1  0.23319710  0.09012524  0.01839579  1
  O  O37  1  0.46715684  0.90184361  0.49813894  1
  O  O38  1  0.93923380  0.28864229  0.75535668  1
  O  O39  1  0.56698869  0.76062330  0.95651887  1
  O  O40  1  0.65059151  0.93923380  0.25535668  1
  O  O41  1  0.90184361  0.43468677  0.99813894  1
