# generated using pymatgen
data_Sr3Ta4(O6F)2
_symmetry_space_group_name_H-M   'P 1'
_cell_length_a   7.48843516
_cell_length_b   7.61979517
_cell_length_c   7.61979517
_cell_angle_alpha   59.99999994
_cell_angle_beta   59.41800183
_cell_angle_gamma   59.41800183
_symmetry_Int_Tables_number   1
_chemical_formula_structural   Sr3Ta4(O6F)2
_chemical_formula_sum   'Sr3 Ta4 O12 F2'
_cell_volume   304.70927774
_cell_formula_units_Z   1
loop_
 _symmetry_equiv_pos_site_id
 _symmetry_equiv_pos_as_xyz
  1  'x, y, z'
loop_
 _atom_site_type_symbol
 _atom_site_label
 _atom_site_symmetry_multiplicity
 _atom_site_fract_x
 _atom_site_fract_y
 _atom_site_fract_z
 _atom_site_occupancy
  Sr  Sr0  1  0.62500000  0.62500000  0.12500000  1
  Sr  Sr1  1  0.62500000  0.12500000  0.62500000  1
  Sr  Sr2  1  0.62500000  0.62500000  0.62500000  1
  Ta  Ta3  1  0.12500000  0.12500000  0.12500000  1
  Ta  Ta4  1  0.62500000  0.12500000  0.12500000  1
  Ta  Ta5  1  0.12500000  0.62500000  0.12500000  1
  Ta  Ta6  1  0.12500000  0.12500000  0.62500000  1
  O  O7  1  0.44506932  0.05787243  0.05787243  1
  O  O8  1  0.80493068  0.19212757  0.19212757  1
  O  O9  1  0.05835221  0.43422218  0.07320443  1
  O  O10  1  0.05835221  0.07320443  0.43422218  1
  O  O11  1  0.44506932  0.43918682  0.05787243  1
  O  O12  1  0.44506932  0.05787243  0.43918682  1
  O  O13  1  0.05835221  0.43422218  0.43422218  1
  O  O14  1  0.19164779  0.17679557  0.81577782  1
  O  O15  1  0.80493068  0.19212757  0.81081318  1
  O  O16  1  0.19164779  0.81577782  0.17679557  1
  O  O17  1  0.80493068  0.81081318  0.19212757  1
  O  O18  1  0.19164779  0.81577782  0.81577782  1
  F  F19  1  0.49995795  0.50001368  0.50001368  1
  F  F20  1  0.75004205  0.74998632  0.74998632  1
