# generated using pymatgen
data_Sr4Sb2O
_symmetry_space_group_name_H-M   'P 1'
_cell_length_a   5.00976899
_cell_length_b   9.40074772
_cell_length_c   7.08356877
_cell_angle_alpha   112.13369722
_cell_angle_beta   45.01306016
_cell_angle_gamma   105.44673773
_symmetry_Int_Tables_number   1
_chemical_formula_structural   Sr4Sb2O
_chemical_formula_sum   'Sr4 Sb2 O1'
_cell_volume   218.56027471
_cell_formula_units_Z   1
loop_
 _symmetry_equiv_pos_site_id
 _symmetry_equiv_pos_as_xyz
  1  'x, y, z'
loop_
 _atom_site_type_symbol
 _atom_site_label
 _atom_site_symmetry_multiplicity
 _atom_site_fract_x
 _atom_site_fract_y
 _atom_site_fract_z
 _atom_site_occupancy
  Sr  Sr0  1  0.99563655  0.66206202  0.83320977  1
  Sr  Sr1  1  0.49949551  -0.00024382  0.50052136  1
  Sr  Sr2  1  0.49948764  -0.00024555  0.99974103  1
  Sr  Sr3  1  0.99562365  0.33628408  0.17033390  1
  Sb  Sb4  1  0.99924459  0.72338212  0.36204901  1
  Sb  Sb5  1  0.99935152  0.27541098  0.63804724  1
  O  O6  1  0.99905053  0.99898816  0.99997069  1
