# generated using pymatgen
data_CdAg2GeS4
_symmetry_space_group_name_H-M   'P 1'
_cell_length_a   6.71456419
_cell_length_b   7.13403339
_cell_length_c   7.91523500
_cell_angle_alpha   90.00000000
_cell_angle_beta   90.00000000
_cell_angle_gamma   90.00000000
_symmetry_Int_Tables_number   1
_chemical_formula_structural   CdAg2GeS4
_chemical_formula_sum   'Cd2 Ag4 Ge2 S8'
_cell_volume   379.15499436
_cell_formula_units_Z   2
loop_
 _symmetry_equiv_pos_site_id
 _symmetry_equiv_pos_as_xyz
  1  'x, y, z'
loop_
 _atom_site_type_symbol
 _atom_site_label
 _atom_site_symmetry_multiplicity
 _atom_site_fract_x
 _atom_site_fract_y
 _atom_site_fract_z
 _atom_site_occupancy
  Cd  Cd0  1  0.01578901  0.14503439  0.00000000  1
  Cd  Cd1  1  0.51578901  0.85496561  0.50000000  1
  Ag  Ag2  1  0.49560776  0.32104960  0.75648709  1
  Ag  Ag3  1  0.49560776  0.32104960  0.24351291  1
  Ag  Ag4  1  0.99560776  0.67895040  0.25648709  1
  Ag  Ag5  1  0.99560776  0.67895040  0.74351291  1
  Ge  Ge6  1  0.01228802  0.17475997  0.50000000  1
  Ge  Ge7  1  0.51228802  0.82524003  0.00000000  1
  S  S8  1  0.17651794  0.82072453  0.00000000  1
  S  S9  1  0.61865867  0.66666514  0.23104022  1
  S  S10  1  0.62997217  0.12020239  0.00000000  1
  S  S11  1  0.67651794  0.17927547  0.50000000  1
  S  S12  1  0.11865867  0.33333486  0.26895978  1
  S  S13  1  0.61865867  0.66666514  0.76895978  1
  S  S14  1  0.12997217  0.87979761  0.50000000  1
  S  S15  1  0.11865867  0.33333486  0.73104022  1
