# generated using pymatgen
data_Ca5(CoN2)2
_symmetry_space_group_name_H-M   'P 1'
_cell_length_a   8.09742409
_cell_length_b   8.09742409
_cell_length_c   12.03781929
_cell_angle_alpha   90.00000000
_cell_angle_beta   90.00000000
_cell_angle_gamma   90.00000000
_symmetry_Int_Tables_number   1
_chemical_formula_structural   Ca5(CoN2)2
_chemical_formula_sum   'Ca20 Co8 N16'
_cell_volume   789.29906840
_cell_formula_units_Z   4
loop_
 _symmetry_equiv_pos_site_id
 _symmetry_equiv_pos_as_xyz
  1  'x, y, z'
loop_
 _atom_site_type_symbol
 _atom_site_label
 _atom_site_symmetry_multiplicity
 _atom_site_fract_x
 _atom_site_fract_y
 _atom_site_fract_z
 _atom_site_occupancy
  Ca  Ca0  1  0.25000000  0.25000000  0.65147981  1
  Ca  Ca1  1  0.75000000  0.75000000  0.34852019  1
  Ca  Ca2  1  0.25000000  0.25000000  0.15147881  1
  Ca  Ca3  1  0.42306610  0.63210540  0.59649141  1
  Ca  Ca4  1  0.86789460  0.07693390  0.09649141  1
  Ca  Ca5  1  0.13210540  0.92306610  0.90350859  1
  Ca  Ca6  1  0.07693390  0.63210540  0.09649141  1
  Ca  Ca7  1  0.57693390  0.13210540  0.90350859  1
  Ca  Ca8  1  0.63210540  0.07693390  0.59649141  1
  Ca  Ca9  1  0.36789460  0.57693390  0.90350859  1
  Ca  Ca10  1  0.07693390  0.86789460  0.59649141  1
  Ca  Ca11  1  0.92306610  0.36789460  0.90350859  1
  Ca  Ca12  1  0.75000000  0.75000000  0.84852019  1
  Ca  Ca13  1  0.57693390  0.36789460  0.40350859  1
  Ca  Ca14  1  0.92306610  0.13210540  0.40350859  1
  Ca  Ca15  1  0.63210540  0.42306610  0.09649141  1
  Ca  Ca16  1  0.42306610  0.86789460  0.09649141  1
  Ca  Ca17  1  0.13210540  0.57693390  0.40350859  1
  Ca  Ca18  1  0.86789460  0.42306610  0.59649141  1
  Ca  Ca19  1  0.36789460  0.92306610  0.40350859  1
  Co  Co20  1  0.40798068  0.59201932  0.25000000  1
  Co  Co21  1  0.59201932  0.40798068  0.75000000  1
  Co  Co22  1  0.90798068  0.40798068  0.25000000  1
  Co  Co23  1  0.40798068  0.90798068  0.75000000  1
  Co  Co24  1  0.09201932  0.90798068  0.25000000  1
  Co  Co25  1  0.09201932  0.59201932  0.75000000  1
  Co  Co26  1  0.90798068  0.09201932  0.75000000  1
  Co  Co27  1  0.59201932  0.09201932  0.25000000  1
  N  N28  1  0.13993204  0.54929675  0.60721421  1
  N  N29  1  0.45070325  0.63993204  0.39278579  1
  N  N30  1  0.45070325  0.86006796  0.89278579  1
  N  N31  1  0.54929675  0.13993204  0.10721421  1
  N  N32  1  0.04929675  0.63993204  0.89278579  1
  N  N33  1  0.95070325  0.36006796  0.10721421  1
  N  N34  1  0.63993204  0.04929675  0.39278579  1
  N  N35  1  0.63993204  0.45070325  0.89278579  1
  N  N36  1  0.13993204  0.95070325  0.10721421  1
  N  N37  1  0.36006796  0.95070325  0.60721421  1
  N  N38  1  0.04929675  0.86006796  0.39278579  1
  N  N39  1  0.86006796  0.04929675  0.89278579  1
  N  N40  1  0.95070325  0.13993204  0.60721421  1
  N  N41  1  0.86006796  0.45070325  0.39278579  1
  N  N42  1  0.54929675  0.36006796  0.60721421  1
  N  N43  1  0.36006796  0.54929675  0.10721421  1
