# generated using pymatgen
data_Cs2CN2
_symmetry_space_group_name_H-M   'P 1'
_cell_length_a   7.11305233
_cell_length_b   6.08435284
_cell_length_c   12.98505635
_cell_angle_alpha   82.94804180
_cell_angle_beta   91.58272099
_cell_angle_gamma   127.91964251
_symmetry_Int_Tables_number   1
_chemical_formula_structural   Cs2CN2
_chemical_formula_sum   'Cs6 C3 N6'
_cell_volume   439.14891183
_cell_formula_units_Z   3
loop_
 _symmetry_equiv_pos_site_id
 _symmetry_equiv_pos_as_xyz
  1  'x, y, z'
loop_
 _atom_site_type_symbol
 _atom_site_label
 _atom_site_symmetry_multiplicity
 _atom_site_fract_x
 _atom_site_fract_y
 _atom_site_fract_z
 _atom_site_occupancy
  Cs  Cs0  1  0.84626612  0.17274735  0.41711947  1
  Cs  Cs1  1  0.15373388  0.82725265  0.58288053  1
  Cs  Cs2  1  0.50401987  0.49964162  0.24837627  1
  Cs  Cs3  1  0.49598013  0.50035838  0.75162373  1
  Cs  Cs4  1  0.82510720  0.16332238  0.91533787  1
  Cs  Cs5  1  0.17489280  0.83667762  0.08466213  1
  C  C6  1  0.50000000  0.50000000  0.00000000  1
  C  C7  1  0.82341119  0.16346195  0.66682129  1
  C  C8  1  0.17658881  0.83653805  0.33317871  1
  N  N9  1  0.66834887  0.48755041  0.99862869  1
  N  N10  1  0.33165113  0.51244959  0.00137131  1
  N  N11  1  0.99055353  0.14939880  0.66237615  1
  N  N12  1  0.00944647  0.85060120  0.33762385  1
  N  N13  1  0.34346056  0.82225130  0.32851652  1
  N  N14  1  0.65653944  0.17774870  0.67148348  1
