# generated using pymatgen
data_PCl3O
_symmetry_space_group_name_H-M   'P 1'
_cell_length_a   12.10426859
_cell_length_b   9.50472474
_cell_length_c   5.96923863
_cell_angle_alpha   90.00000000
_cell_angle_beta   90.00000000
_cell_angle_gamma   90.00000000
_symmetry_Int_Tables_number   1
_chemical_formula_structural   PCl3O
_chemical_formula_sum   'P4 Cl12 O4'
_cell_volume   686.74742063
_cell_formula_units_Z   4
loop_
 _symmetry_equiv_pos_site_id
 _symmetry_equiv_pos_as_xyz
  1  'x, y, z'
loop_
 _atom_site_type_symbol
 _atom_site_label
 _atom_site_symmetry_multiplicity
 _atom_site_fract_x
 _atom_site_fract_y
 _atom_site_fract_z
 _atom_site_occupancy
  P  P0  1  0.17927901  0.75930864  0.86803953  1
  P  P1  1  0.32072099  0.25930864  0.36803953  1
  P  P2  1  0.67927901  0.74069136  0.86803953  1
  P  P3  1  0.82072099  0.24069136  0.36803953  1
  Cl  Cl4  1  0.05731944  0.75023012  0.09558291  1
  Cl  Cl5  1  0.13721266  0.92331283  0.67286378  1
  Cl  Cl6  1  0.15393225  0.58949240  0.67450609  1
  Cl  Cl7  1  0.34606775  0.08949240  0.17450609  1
  Cl  Cl8  1  0.36278734  0.42331283  0.17286378  1
  Cl  Cl9  1  0.44268056  0.25023012  0.59558291  1
  Cl  Cl10  1  0.55731944  0.74976988  0.09558291  1
  Cl  Cl11  1  0.63721266  0.57668717  0.67286378  1
  Cl  Cl12  1  0.65393225  0.91050760  0.67450609  1
  Cl  Cl13  1  0.84606775  0.41050760  0.17450609  1
  Cl  Cl14  1  0.86278734  0.07668717  0.17286378  1
  Cl  Cl15  1  0.94268056  0.24976988  0.59558291  1
  O  O16  1  0.20868361  0.26879223  0.46297569  1
  O  O17  1  0.29131639  0.76879223  0.96297669  1
  O  O18  1  0.70868361  0.23120777  0.46297569  1
  O  O19  1  0.79131639  0.73120777  0.96297669  1
