# generated using pymatgen
data_RbRuF6
_symmetry_space_group_name_H-M   'P 1'
_cell_length_a   5.25903987
_cell_length_b   5.25903987
_cell_length_c   5.25903987
_cell_angle_alpha   97.54731185
_cell_angle_beta   97.54731186
_cell_angle_gamma   97.54731184
_symmetry_Int_Tables_number   1
_chemical_formula_structural   RbRuF6
_chemical_formula_sum   'Rb1 Ru1 F6'
_cell_volume   141.29914997
_cell_formula_units_Z   1
loop_
 _symmetry_equiv_pos_site_id
 _symmetry_equiv_pos_as_xyz
  1  'x, y, z'
loop_
 _atom_site_type_symbol
 _atom_site_label
 _atom_site_symmetry_multiplicity
 _atom_site_fract_x
 _atom_site_fract_y
 _atom_site_fract_z
 _atom_site_occupancy
  F  F0  1  0.25524954  0.25524954  0.91910335  1
  F  F1  1  0.25524954  0.91910335  0.25524954  1
  F  F2  1  0.74475046  0.08089665  0.74475046  1
  F  F3  1  0.74475046  0.74475046  0.08089665  1
  F  F4  1  0.08089665  0.74475046  0.74475046  1
  F  F5  1  0.91910335  0.25524954  0.25524954  1
  Rb  Rb6  1  0.50000000  0.50000000  0.50000000  1
  Ru  Ru7  1  0.00000000  0.00000000  0.00000000  1
