# generated using pymatgen
data_LiSiNO
_symmetry_space_group_name_H-M   'P 1'
_cell_length_a   4.78699144
_cell_length_b   5.23978209
_cell_length_c   6.44495629
_cell_angle_alpha   90.00000000
_cell_angle_beta   90.00000000
_cell_angle_gamma   90.00000000
_symmetry_Int_Tables_number   1
_chemical_formula_structural   LiSiNO
_chemical_formula_sum   'Li4 Si4 N4 O4'
_cell_volume   161.65749815
_cell_formula_units_Z   4
loop_
 _symmetry_equiv_pos_site_id
 _symmetry_equiv_pos_as_xyz
  1  'x, y, z'
loop_
 _atom_site_type_symbol
 _atom_site_label
 _atom_site_symmetry_multiplicity
 _atom_site_fract_x
 _atom_site_fract_y
 _atom_site_fract_z
 _atom_site_occupancy
  Li  Li0  1  0.99986595  0.59648573  0.38458737  1
  Li  Li1  1  0.49986595  0.40351427  0.61541263  1
  Li  Li2  1  0.49986595  0.90351427  0.38458737  1
  Li  Li3  1  0.99986595  0.09648573  0.61541263  1
  N  N4  1  0.14795417  0.39051679  0.08397038  1
  N  N5  1  0.64795417  0.60948321  0.91602962  1
  N  N6  1  0.64795417  0.10948321  0.08397038  1
  N  N7  1  0.14795417  0.89051679  0.91602962  1
  O  O8  1  0.59057581  0.03760953  0.65682478  1
  O  O9  1  0.09057581  0.46239047  0.65682478  1
  O  O10  1  0.09057581  0.96239047  0.34317522  1
  O  O11  1  0.59057581  0.53760953  0.34317522  1
  Si  Si12  1  0.51160407  0.41878598  0.11957546  1
  Si  Si13  1  0.51160407  0.91878598  0.88042454  1
  Si  Si14  1  0.01160407  0.08121402  0.11957546  1
  Si  Si15  1  0.01160407  0.58121402  0.88042454  1
