# generated using pymatgen
data_Tl3AsSe3
_symmetry_space_group_name_H-M   'P 1'
_cell_length_a   6.40150616
_cell_length_b   6.40150616
_cell_length_c   6.40150616
_cell_angle_alpha   106.68506420
_cell_angle_beta   106.68506419
_cell_angle_gamma   106.68506421
_symmetry_Int_Tables_number   1
_chemical_formula_structural   Tl3AsSe3
_chemical_formula_sum   'Tl3 As1 Se3'
_cell_volume   220.32015719
_cell_formula_units_Z   1
loop_
 _symmetry_equiv_pos_site_id
 _symmetry_equiv_pos_as_xyz
  1  'x, y, z'
loop_
 _atom_site_type_symbol
 _atom_site_label
 _atom_site_symmetry_multiplicity
 _atom_site_fract_x
 _atom_site_fract_y
 _atom_site_fract_z
 _atom_site_occupancy
  As  As0  1  0.69908541  0.69908541  0.69908541  1
  Se  Se1  1  0.09053872  0.72025300  0.72025300  1
  Se  Se2  1  0.72025300  0.72025300  0.09053872  1
  Se  Se3  1  0.72025300  0.09053872  0.72025300  1
  Tl  Tl4  1  0.15198734  0.55489518  0.15198734  1
  Tl  Tl5  1  0.55489518  0.15198734  0.15198734  1
  Tl  Tl6  1  0.15198734  0.15198734  0.55489518  1
