# generated using pymatgen
data_Ca2MgSi2O7
_symmetry_space_group_name_H-M   'P 1'
_cell_length_a   5.05302356
_cell_length_b   7.90789641
_cell_length_c   7.90789641
_cell_angle_alpha   90.00000000
_cell_angle_beta   90.00000000
_cell_angle_gamma   90.00000000
_symmetry_Int_Tables_number   1
_chemical_formula_structural   Ca2MgSi2O7
_chemical_formula_sum   'Ca4 Mg2 Si4 O14'
_cell_volume   315.98994724
_cell_formula_units_Z   2
loop_
 _symmetry_equiv_pos_site_id
 _symmetry_equiv_pos_as_xyz
  1  'x, y, z'
loop_
 _atom_site_type_symbol
 _atom_site_label
 _atom_site_symmetry_multiplicity
 _atom_site_fract_x
 _atom_site_fract_y
 _atom_site_fract_z
 _atom_site_occupancy
  O  O0  1  0.78090304  0.68484416  0.58200891  1
  O  O1  1  0.78090304  0.31515584  0.41799109  1
  O  O2  1  0.21909696  0.41799109  0.68484416  1
  O  O3  1  0.21909696  0.58200891  0.31515584  1
  O  O4  1  0.78090304  0.91799109  0.81515584  1
  O  O5  1  0.21909696  0.81515584  0.08200891  1
  O  O6  1  0.21909696  0.18484416  0.91799109  1
  O  O7  1  0.78090304  0.08200891  0.18484416  1
  O  O8  1  0.25053741  0.85725672  0.64274328  1
  O  O9  1  0.74946259  0.64274328  0.14274328  1
  O  O10  1  0.81350829  0.00000000  0.50000000  1
  O  O11  1  0.18649171  0.50000000  0.00000000  1
  O  O12  1  0.25053741  0.14274328  0.35725672  1
  O  O13  1  0.74946259  0.35725672  0.85725672  1
  Mg  Mg14  1  0.00000000  0.00000000  0.00000000  1
  Mg  Mg15  1  0.00000000  0.50000000  0.50000000  1
  Si  Si16  1  0.06927716  0.64086936  0.14086936  1
  Si  Si17  1  0.93072284  0.14086936  0.35913064  1
  Si  Si18  1  0.06927716  0.35913064  0.85913064  1
  Si  Si19  1  0.93072284  0.85913064  0.64086936  1
  Ca  Ca20  1  0.49728098  0.16994631  0.66994631  1
  Ca  Ca21  1  0.50271902  0.33005369  0.16994631  1
  Ca  Ca22  1  0.50271902  0.66994631  0.83005369  1
  Ca  Ca23  1  0.49728098  0.83005369  0.33005369  1
