# generated using pymatgen
data_UCO5
_symmetry_space_group_name_H-M   'P 1'
_cell_length_a   4.34794155
_cell_length_b   4.89084771
_cell_length_c   5.82616288
_cell_angle_alpha   114.81763461
_cell_angle_beta   111.90936160
_cell_angle_gamma   90.00000002
_symmetry_Int_Tables_number   1
_chemical_formula_structural   UCO5
_chemical_formula_sum   'U1 C1 O5'
_cell_volume   102.51007004
_cell_formula_units_Z   1
loop_
 _symmetry_equiv_pos_site_id
 _symmetry_equiv_pos_as_xyz
  1  'x, y, z'
loop_
 _atom_site_type_symbol
 _atom_site_label
 _atom_site_symmetry_multiplicity
 _atom_site_fract_x
 _atom_site_fract_y
 _atom_site_fract_z
 _atom_site_occupancy
  C  C0  1  0.38084849  0.50000000  0.00000000  1
  O  O1  1  0.81119339  0.81443417  0.62886834  1
  O  O2  1  0.08052915  0.50000000  0.00000000  1
  O  O3  1  0.18232505  0.18556583  0.37113166  1
  O  O4  1  0.51023960  0.26419312  1.00000000  1
  O  O5  1  0.51023960  0.73580688  0.00000000  1
  U  U6  1  0.99392473  0.00000000  0.00000000  1
