# generated using pymatgen
data_SiO2
_symmetry_space_group_name_H-M   'P 1'
_cell_length_a   5.20585311
_cell_length_b   5.62094844
_cell_length_c   6.60051944
_cell_angle_alpha   69.30417577
_cell_angle_beta   89.43534601
_cell_angle_gamma   83.03348213
_symmetry_Int_Tables_number   1
_chemical_formula_structural   SiO2
_chemical_formula_sum   'Si4 O8'
_cell_volume   179.23243254
_cell_formula_units_Z   4
loop_
 _symmetry_equiv_pos_site_id
 _symmetry_equiv_pos_as_xyz
  1  'x, y, z'
loop_
 _atom_site_type_symbol
 _atom_site_label
 _atom_site_symmetry_multiplicity
 _atom_site_fract_x
 _atom_site_fract_y
 _atom_site_fract_z
 _atom_site_occupancy
  Si  Si0  1  0.30449797  0.78786182  0.24128196  1
  Si  Si1  1  0.05802866  0.30902378  0.21358317  1
  Si  Si2  1  0.16675421  0.88522869  0.64710810  1
  Si  Si3  1  0.68514350  0.72485349  0.95606327  1
  O  O4  1  0.07773961  0.17743206  0.47849819  1
  O  O5  1  0.16809875  0.08421017  0.11950230  1
  O  O6  1  0.23605200  0.70691820  0.49764207  1
  O  O7  1  0.43441818  0.83342144  0.78888081  1
  O  O8  1  0.92426580  0.83069284  0.80499901  1
  O  O9  1  0.77632041  0.41570522  0.08224947  1
  O  O10  1  0.60751287  0.81230188  0.16620692  1
  O  O11  1  0.21378805  0.55983043  0.16760473  1
