# generated using pymatgen
data_Al2O3
_symmetry_space_group_name_H-M   'P 1'
_cell_length_a   3.03472800
_cell_length_b   6.09211387
_cell_length_c   3.03472840
_cell_angle_alpha   104.42250151
_cell_angle_beta   60.00000433
_cell_angle_gamma   104.42249806
_symmetry_Int_Tables_number   1
_chemical_formula_structural   Al2O3
_chemical_formula_sum   'Al2 O3'
_cell_volume   46.53615463
_cell_formula_units_Z   1
loop_
 _symmetry_equiv_pos_site_id
 _symmetry_equiv_pos_as_xyz
  1  'x, y, z'
loop_
 _atom_site_type_symbol
 _atom_site_label
 _atom_site_symmetry_multiplicity
 _atom_site_fract_x
 _atom_site_fract_y
 _atom_site_fract_z
 _atom_site_occupancy
  Al  Al0  1  0.19288900  0.57866700  0.19288900  1
  Al  Al1  1  0.69318400  0.07955200  0.69318400  1
  O  O2  1  0.02833000  0.08499000  0.02833000  1
  O  O3  1  0.58211700  0.74635200  0.58211700  1
  O  O4  1  0.80648000  0.41943900  0.80648000  1
