# generated using pymatgen
data_Mn4OF6
_symmetry_space_group_name_H-M   'P 1'
_cell_length_a   7.46043276
_cell_length_b   7.46035963
_cell_length_c   5.61379389
_cell_angle_alpha   90.00070790
_cell_angle_beta   89.99993752
_cell_angle_gamma   120.00134742
_symmetry_Int_Tables_number   1
_chemical_formula_structural   Mn4OF6
_chemical_formula_sum   'Mn8 O2 F12'
_cell_volume   270.58578800
_cell_formula_units_Z   2
loop_
 _symmetry_equiv_pos_site_id
 _symmetry_equiv_pos_as_xyz
  1  'x, y, z'
loop_
 _atom_site_type_symbol
 _atom_site_label
 _atom_site_symmetry_multiplicity
 _atom_site_fract_x
 _atom_site_fract_y
 _atom_site_fract_z
 _atom_site_occupancy
  Mn  Mn0  1  0.18422445  0.81576976  0.50002511  1
  Mn  Mn1  1  0.18422898  0.36841638  0.50002170  1
  Mn  Mn2  1  0.33331050  0.66662980  0.98336523  1
  Mn  Mn3  1  0.63156847  0.81575569  0.50001761  1
  Mn  Mn4  1  0.36843354  0.18420339  0.00001663  1
  Mn  Mn5  1  0.81579222  0.63156390  0.00001385  1
  Mn  Mn6  1  0.66667560  0.33331377  0.48334901  1
  Mn  Mn7  1  0.81576345  0.18418894  0.00001570  1
  O  O8  1  0.33334099  0.66665831  0.62934608  1
  O  O9  1  0.66666689  0.33332848  0.12932623  1
  F  F10  1  0.12985583  0.87013741  0.89331526  1
  F  F11  1  0.08293530  0.54144199  0.22696338  1
  F  F12  1  0.12985155  0.25970478  0.89331510  1
  F  F13  1  0.45854375  0.91705864  0.22689521  1
  F  F14  1  0.45851579  0.54145460  0.22694143  1
  F  F15  1  0.25970462  0.12982531  0.39330036  1
  F  F16  1  0.74028977  0.87012852  0.89331432  1
  F  F17  1  0.54146339  0.45851412  0.72689092  1
  F  F18  1  0.54147966  0.08293220  0.72691911  1
  F  F19  1  0.87015329  0.74028542  0.39330685  1
  F  F20  1  0.91706888  0.45855090  0.72694116  1
  F  F21  1  0.87013207  0.12983767  0.39331975  1
