# generated using pymatgen
data_Na4Al3Si3BrO12
_symmetry_space_group_name_H-M   'P 1'
_cell_length_a   9.03071611
_cell_length_b   9.03071611
_cell_length_c   9.03071611
_cell_angle_alpha   90.00000000
_cell_angle_beta   90.00000000
_cell_angle_gamma   90.00000000
_symmetry_Int_Tables_number   1
_chemical_formula_structural   Na4Al3Si3BrO12
_chemical_formula_sum   'Na8 Al6 Si6 Br2 O24'
_cell_volume   736.48951765
_cell_formula_units_Z   2
loop_
 _symmetry_equiv_pos_site_id
 _symmetry_equiv_pos_as_xyz
  1  'x, y, z'
loop_
 _atom_site_type_symbol
 _atom_site_label
 _atom_site_symmetry_multiplicity
 _atom_site_fract_x
 _atom_site_fract_y
 _atom_site_fract_z
 _atom_site_occupancy
  O  O0  1  0.34951965  0.05742470  0.64055528  1
  O  O1  1  0.64055528  0.65048035  0.94257530  1
  O  O2  1  0.64055528  0.34951965  0.05742470  1
  O  O3  1  0.65048035  0.94257530  0.64055528  1
  O  O4  1  0.34951965  0.94257530  0.35944472  1
  O  O5  1  0.94257530  0.64055528  0.65048035  1
  O  O6  1  0.05742470  0.35944472  0.65048035  1
  O  O7  1  0.85944472  0.55742470  0.15048035  1
  O  O8  1  0.85944472  0.44257530  0.84951965  1
  O  O9  1  0.14055528  0.55742470  0.84951965  1
  O  O10  1  0.44257530  0.84951965  0.85944472  1
  O  O11  1  0.84951965  0.14055528  0.55742470  1
  O  O12  1  0.84951965  0.85944472  0.44257530  1
  O  O13  1  0.55742470  0.15048035  0.85944472  1
  O  O14  1  0.15048035  0.85944472  0.55742470  1
  O  O15  1  0.55742470  0.84951965  0.14055528  1
  O  O16  1  0.44257530  0.15048035  0.14055528  1
  O  O17  1  0.15048035  0.14055528  0.44257530  1
  O  O18  1  0.05742470  0.64055528  0.34951965  1
  O  O19  1  0.94257530  0.35944472  0.34951965  1
  O  O20  1  0.14055528  0.44257530  0.15048035  1
  O  O21  1  0.35944472  0.65048035  0.05742470  1
  O  O22  1  0.35944472  0.34951965  0.94257530  1
  O  O23  1  0.65048035  0.05742470  0.35944472  1
  Na  Na24  1  0.18574110  0.18574110  0.18574110  1
  Na  Na25  1  0.68574110  0.68574110  0.68574110  1
  Na  Na26  1  0.31425890  0.68574110  0.31425890  1
  Na  Na27  1  0.31425890  0.31425890  0.68574110  1
  Na  Na28  1  0.68574110  0.31425890  0.31425890  1
  Na  Na29  1  0.81425890  0.81425890  0.18574110  1
  Na  Na30  1  0.81425890  0.18574110  0.81425890  1
  Na  Na31  1  0.18574110  0.81425890  0.81425890  1
  Al  Al32  1  0.75000000  0.50000000  0.00000000  1
  Al  Al33  1  0.00000000  0.25000000  0.50000000  1
  Al  Al34  1  0.50000000  0.00000000  0.25000000  1
  Al  Al35  1  0.50000000  0.00000000  0.75000000  1
  Al  Al36  1  0.25000000  0.50000000  0.00000000  1
  Al  Al37  1  0.00000000  0.75000000  0.50000000  1
  Si  Si38  1  0.75000000  0.00000000  0.50000000  1
  Si  Si39  1  0.25000000  0.00000000  0.50000000  1
  Si  Si40  1  0.00000000  0.50000000  0.75000000  1
  Si  Si41  1  0.00000000  0.50000000  0.25000000  1
  Si  Si42  1  0.50000000  0.25000000  0.00000000  1
  Si  Si43  1  0.50000000  0.75000000  0.00000000  1
  Br  Br44  1  0.00000000  0.00000000  0.00000000  1
  Br  Br45  1  0.50000000  0.50000000  0.50000000  1
