# generated using pymatgen
data_K2PAu
_symmetry_space_group_name_H-M   'P 1'
_cell_length_a   6.18373109
_cell_length_b   6.18373109
_cell_length_c   6.35637943
_cell_angle_alpha   90.00000000
_cell_angle_beta   90.00000000
_cell_angle_gamma   106.34486229
_symmetry_Int_Tables_number   1
_chemical_formula_structural   K2PAu
_chemical_formula_sum   'K4 P2 Au2'
_cell_volume   233.23545087
_cell_formula_units_Z   2
loop_
 _symmetry_equiv_pos_site_id
 _symmetry_equiv_pos_as_xyz
  1  'x, y, z'
loop_
 _atom_site_type_symbol
 _atom_site_label
 _atom_site_symmetry_multiplicity
 _atom_site_fract_x
 _atom_site_fract_y
 _atom_site_fract_z
 _atom_site_occupancy
  P  P0  1  0.25298293  0.25298293  0.25000000  1
  P  P1  1  0.74701707  0.74701707  0.75000000  1
  K  K2  1  0.97163915  0.31887631  0.75000000  1
  K  K3  1  0.02836085  0.68112369  0.25000000  1
  K  K4  1  0.68112369  0.02836085  0.25000000  1
  K  K5  1  0.31887631  0.97163915  0.75000000  1
  Au  Au6  1  0.50000000  0.50000000  0.50000000  1
  Au  Au7  1  0.50000000  0.50000000  0.00000000  1
