# generated using pymatgen
data_Al2PbO4
_symmetry_space_group_name_H-M   'P 1'
_cell_length_a   5.15820464
_cell_length_b   5.32817230
_cell_length_c   8.56974882
_cell_angle_alpha   90.00000000
_cell_angle_beta   90.00000000
_cell_angle_gamma   118.95025608
_symmetry_Int_Tables_number   1
_chemical_formula_structural   Al2PbO4
_chemical_formula_sum   'Al4 Pb2 O8'
_cell_volume   206.09761672
_cell_formula_units_Z   2
loop_
 _symmetry_equiv_pos_site_id
 _symmetry_equiv_pos_as_xyz
  1  'x, y, z'
loop_
 _atom_site_type_symbol
 _atom_site_label
 _atom_site_symmetry_multiplicity
 _atom_site_fract_x
 _atom_site_fract_y
 _atom_site_fract_z
 _atom_site_occupancy
  O  O0  1  0.53816140  0.37257026  0.25000000  1
  O  O1  1  0.16559114  0.62742974  0.75000000  1
  O  O2  1  0.35826386  0.00000000  0.50000000  1
  O  O3  1  0.35826386  0.00000000  0.00000000  1
  O  O4  1  0.00098808  0.38250287  0.44569654  1
  O  O5  1  0.61848521  0.61749713  0.55430346  1
  O  O6  1  0.61848521  0.61749713  0.94569654  1
  O  O7  1  0.00098808  0.38250287  0.05430346  1
  Al  Al8  1  0.63972215  0.34384379  0.44567808  1
  Al  Al9  1  0.29587836  0.65615621  0.55432192  1
  Al  Al10  1  0.63972215  0.34384379  0.05432192  1
  Al  Al11  1  0.29587836  0.65615621  0.94567808  1
  Pb  Pb12  1  0.02999877  0.06042539  0.25000000  1
  Pb  Pb13  1  0.96957337  0.93957461  0.75000000  1
