# generated using pymatgen
data_ZnGeN2
_symmetry_space_group_name_H-M   'P 1'
_cell_length_a   5.24963017
_cell_length_b   5.51051000
_cell_length_c   6.49692539
_cell_angle_alpha   90.00000000
_cell_angle_beta   90.00000000
_cell_angle_gamma   90.00000000
_symmetry_Int_Tables_number   1
_chemical_formula_structural   ZnGeN2
_chemical_formula_sum   'Zn4 Ge4 N8'
_cell_volume   187.94396432
_cell_formula_units_Z   4
loop_
 _symmetry_equiv_pos_site_id
 _symmetry_equiv_pos_as_xyz
  1  'x, y, z'
loop_
 _atom_site_type_symbol
 _atom_site_label
 _atom_site_symmetry_multiplicity
 _atom_site_fract_x
 _atom_site_fract_y
 _atom_site_fract_z
 _atom_site_occupancy
  N  N0  1  0.39258689  0.59827137  0.85964779  1
  N  N1  1  0.89258689  0.40172863  0.14035221  1
  N  N2  1  0.89258689  0.90172863  0.35964779  1
  N  N3  1  0.39258689  0.09827137  0.64035221  1
  N  N4  1  0.35867907  0.56579234  0.39007775  1
  N  N5  1  0.35867907  0.06579234  0.10992225  1
  N  N6  1  0.85867907  0.93420766  0.89007775  1
  N  N7  1  0.85867907  0.43420766  0.60992225  1
  Zn  Zn8  1  0.99956525  0.58425527  0.87533360  1
  Zn  Zn9  1  0.49956525  0.91574473  0.37533360  1
  Zn  Zn10  1  0.49956525  0.41574473  0.12466640  1
  Zn  Zn11  1  0.99956525  0.08425527  0.62466640  1
  Ge  Ge12  1  0.00016879  0.07635703  0.12547701  1
  Ge  Ge13  1  0.50016879  0.92364297  0.87452299  1
  Ge  Ge14  1  0.50016879  0.42364297  0.62547701  1
  Ge  Ge15  1  0.00016879  0.57635703  0.37452299  1
