# generated using pymatgen
data_K2P2Pd
_symmetry_space_group_name_H-M   'P 1'
_cell_length_a   5.97537125
_cell_length_b   6.39971938
_cell_length_c   7.82199599
_cell_angle_alpha   114.14735654
_cell_angle_beta   90.00000000
_cell_angle_gamma   90.00000000
_symmetry_Int_Tables_number   1
_chemical_formula_structural   K2P2Pd
_chemical_formula_sum   'K4 P4 Pd2'
_cell_volume   272.94463265
_cell_formula_units_Z   2
loop_
 _symmetry_equiv_pos_site_id
 _symmetry_equiv_pos_as_xyz
  1  'x, y, z'
loop_
 _atom_site_type_symbol
 _atom_site_label
 _atom_site_symmetry_multiplicity
 _atom_site_fract_x
 _atom_site_fract_y
 _atom_site_fract_z
 _atom_site_occupancy
  P  P0  1  0.75000000  0.28080342  0.22134854  1
  P  P1  1  0.25000000  0.05945488  0.77865146  1
  P  P2  1  0.25000000  0.71919658  0.77865146  1
  P  P3  1  0.75000000  0.94054512  0.22134854  1
  K  K4  1  0.75000000  0.78803153  0.57606305  1
  K  K5  1  0.75000000  0.42475782  0.84951564  1
  K  K6  1  0.25000000  0.21196847  0.42393695  1
  K  K7  1  0.25000000  0.57524218  0.15048436  1
  Pd  Pd8  1  0.00000000  0.00000000  0.00000000  1
  Pd  Pd9  1  0.50000000  0.00000000  0.00000000  1
