# generated using pymatgen
data_LaBO3
_symmetry_space_group_name_H-M   'P 1'
_cell_length_a   4.18818543
_cell_length_b   5.13066477
_cell_length_c   6.42761677
_cell_angle_alpha   90.00000000
_cell_angle_beta   108.31448852
_cell_angle_gamma   90.00000000
_symmetry_Int_Tables_number   1
_chemical_formula_structural   LaBO3
_chemical_formula_sum   'La2 B2 O6'
_cell_volume   131.12154664
_cell_formula_units_Z   2
loop_
 _symmetry_equiv_pos_site_id
 _symmetry_equiv_pos_as_xyz
  1  'x, y, z'
loop_
 _atom_site_type_symbol
 _atom_site_label
 _atom_site_symmetry_multiplicity
 _atom_site_fract_x
 _atom_site_fract_y
 _atom_site_fract_z
 _atom_site_occupancy
  B  B0  1  0.99876406  0.25000000  0.25375309  1
  B  B1  1  0.00123594  0.75000000  0.74624691  1
  O  O2  1  0.84299716  0.01726818  0.17120500  1
  O  O3  1  0.15700284  0.51726818  0.82879500  1
  O  O4  1  0.67151309  0.75000000  0.61137346  1
  O  O5  1  0.32848691  0.25000000  0.38862654  1
  O  O6  1  0.15700284  0.98273182  0.82879500  1
  O  O7  1  0.84299716  0.48273182  0.17120500  1
  La  La8  1  0.61665435  0.25000000  0.77619087  1
  La  La9  1  0.38334565  0.75000000  0.22380913  1
