# generated using pymatgen
data_NaInBr4
_symmetry_space_group_name_H-M   'P 1'
_cell_length_a   6.89019419
_cell_length_b   10.82036872
_cell_length_c   11.61800747
_cell_angle_alpha   90.00000000
_cell_angle_beta   90.00000000
_cell_angle_gamma   90.00000000
_symmetry_Int_Tables_number   1
_chemical_formula_structural   NaInBr4
_chemical_formula_sum   'Na4 In4 Br16'
_cell_volume   866.17406046
_cell_formula_units_Z   4
loop_
 _symmetry_equiv_pos_site_id
 _symmetry_equiv_pos_as_xyz
  1  'x, y, z'
loop_
 _atom_site_type_symbol
 _atom_site_label
 _atom_site_symmetry_multiplicity
 _atom_site_fract_x
 _atom_site_fract_y
 _atom_site_fract_z
 _atom_site_occupancy
  Na  Na0  1  0.31826948  0.77537629  0.89699735  1
  Na  Na1  1  0.81826948  0.22462371  0.60300265  1
  Na  Na2  1  0.18173052  0.27537629  0.10300265  1
  Na  Na3  1  0.68173052  0.72462371  0.39699735  1
  Br  Br4  1  0.92509047  0.49274253  0.53910360  1
  Br  Br5  1  0.56796658  0.81032358  0.13098321  1
  Br  Br6  1  0.06796658  0.18967642  0.36901679  1
  Br  Br7  1  0.93203342  0.31032358  0.86901679  1
  Br  Br8  1  0.42509047  0.50725747  0.96089640  1
  Br  Br9  1  0.91005249  0.69650935  0.84950761  1
  Br  Br10  1  0.07490953  0.00725747  0.03910360  1
  Br  Br11  1  0.57490953  0.99274253  0.46089640  1
  Br  Br12  1  0.58994751  0.19650935  0.15049239  1
  Br  Br13  1  0.41005249  0.30349065  0.65049239  1
  Br  Br14  1  0.94737781  0.50248335  0.16150039  1
  Br  Br15  1  0.08994751  0.80349065  0.34950761  1
  Br  Br16  1  0.05262219  0.99751665  0.66150039  1
  Br  Br17  1  0.55262219  0.00248335  0.83849961  1
  Br  Br18  1  0.44737781  0.49751665  0.33849961  1
  Br  Br19  1  0.43203342  0.68967642  0.63098321  1
  In  In20  1  0.79570467  0.50742835  0.96146106  1
  In  In21  1  0.20429533  0.99257165  0.46146106  1
  In  In22  1  0.70429533  0.00742835  0.03853894  1
  In  In23  1  0.29570467  0.49257165  0.53853894  1
