# generated using pymatgen
data_TiH2SO6
_symmetry_space_group_name_H-M   'P 1'
_cell_length_a   5.15117719
_cell_length_b   8.78034422
_cell_length_c   10.01118911
_cell_angle_alpha   90.00000000
_cell_angle_beta   90.00000000
_cell_angle_gamma   90.00000000
_symmetry_Int_Tables_number   1
_chemical_formula_structural   TiH2SO6
_chemical_formula_sum   'Ti4 H8 S4 O24'
_cell_volume   452.79716214
_cell_formula_units_Z   4
loop_
 _symmetry_equiv_pos_site_id
 _symmetry_equiv_pos_as_xyz
  1  'x, y, z'
loop_
 _atom_site_type_symbol
 _atom_site_label
 _atom_site_symmetry_multiplicity
 _atom_site_fract_x
 _atom_site_fract_y
 _atom_site_fract_z
 _atom_site_occupancy
  Ti  Ti0  1  0.24076033  0.71161611  0.37839715  1
  Ti  Ti1  1  0.74076033  0.78838389  0.62160285  1
  Ti  Ti2  1  0.75923967  0.21161611  0.12160285  1
  Ti  Ti3  1  0.25923967  0.28838389  0.87839715  1
  S  S4  1  0.76282465  0.58365996  0.17655403  1
  S  S5  1  0.26282465  0.91634004  0.82344597  1
  S  S6  1  0.23717535  0.08365996  0.32344597  1
  S  S7  1  0.73717535  0.41634004  0.67655403  1
  O  O8  1  0.96586146  0.73659658  0.48120107  1
  O  O9  1  0.46586146  0.76340342  0.51879893  1
  O  O10  1  0.03413854  0.23659658  0.01879893  1
  O  O11  1  0.53413854  0.26340342  0.98120107  1
  O  O12  1  0.72222092  0.61215448  0.03360042  1
  O  O13  1  0.22222092  0.88784552  0.96639958  1
  O  O14  1  0.27777908  0.11215448  0.46639958  1
  O  O15  1  0.77777908  0.38784552  0.53360042  1
  O  O16  1  0.25277296  0.91492824  0.29392933  1
  O  O17  1  0.75277296  0.58507176  0.70607067  1
  O  O18  1  0.74722704  0.41492824  0.20607067  1
  O  O19  1  0.24722704  0.08507176  0.79392933  1
  O  O20  1  0.56609632  0.66011929  0.25979677  1
  O  O21  1  0.06609632  0.83988071  0.74020323  1
  O  O22  1  0.43390368  0.16011929  0.24020323  1
  O  O23  1  0.93390368  0.33988071  0.75979677  1
  O  O24  1  0.02778147  0.63600820  0.21502077  1
  O  O25  1  0.52778147  0.86399180  0.78497923  1
  O  O26  1  0.97221853  0.13600820  0.28497923  1
  O  O27  1  0.47221853  0.36399180  0.71502077  1
  O  O28  1  0.73497002  0.97953670  0.07169122  1
  O  O29  1  0.23497002  0.52046330  0.92830878  1
  O  O30  1  0.26502998  0.47953670  0.42830878  1
  O  O31  1  0.76502998  0.02046330  0.57169122  1
  H  H32  1  0.88483412  0.92950162  0.02792890  1
  H  H33  1  0.38483412  0.57049838  0.97207110  1
  H  H34  1  0.11516588  0.42950162  0.47207110  1
  H  H35  1  0.61516588  0.07049838  0.52792890  1
  H  H36  1  0.57079322  0.92999311  0.04563950  1
  H  H37  1  0.07079322  0.57000689  0.95436050  1
  H  H38  1  0.42920678  0.42999311  0.45436050  1
  H  H39  1  0.92920678  0.07000689  0.54563950  1
