# generated using pymatgen
data_Ba2WO3F4
_symmetry_space_group_name_H-M   'P 1'
_cell_length_a   7.32050068
_cell_length_b   7.57595490
_cell_length_c   7.57595491
_cell_angle_alpha   78.37096069
_cell_angle_beta   62.86364577
_cell_angle_gamma   62.86364566
_symmetry_Int_Tables_number   1
_chemical_formula_structural   Ba2WO3F4
_chemical_formula_sum   'Ba4 W2 O6 F8'
_cell_volume   332.74115553
_cell_formula_units_Z   2
loop_
 _symmetry_equiv_pos_site_id
 _symmetry_equiv_pos_as_xyz
  1  'x, y, z'
loop_
 _atom_site_type_symbol
 _atom_site_label
 _atom_site_symmetry_multiplicity
 _atom_site_fract_x
 _atom_site_fract_y
 _atom_site_fract_z
 _atom_site_occupancy
  O  O0  1  0.37569207  0.26896923  0.08411022  1
  O  O1  1  0.87569207  0.08411022  0.26896923  1
  O  O2  1  0.26156686  0.04981457  0.92480752  1
  O  O3  1  0.76156686  0.92480752  0.04981457  1
  O  O4  1  0.66118425  0.08421359  0.71994485  1
  O  O5  1  0.16118425  0.71994485  0.08421359  1
  F  F6  1  0.65391924  0.72466127  0.90042005  1
  F  F7  1  0.15391924  0.90042005  0.72466127  1
  F  F8  1  0.00190088  0.40459226  0.47826405  1
  F  F9  1  0.50190088  0.47826405  0.40459226  1
  F  F10  1  0.85820526  0.25093170  0.91889766  1
  F  F11  1  0.35820526  0.91889766  0.25093170  1
  F  F12  1  0.67396114  0.77222488  0.47610136  1
  F  F13  1  0.17396114  0.47610136  0.77222488  1
  Ba  Ba14  1  0.55477932  0.49893188  0.73966107  1
  Ba  Ba15  1  0.05477932  0.73966107  0.49893188  1
  Ba  Ba16  1  0.89013595  0.50128462  0.15449731  1
  Ba  Ba17  1  0.39013595  0.15449731  0.50128462  1
  W  W18  1  0.00765503  0.97431069  0.02856124  1
  W  W19  1  0.50765503  0.02856124  0.97431069  1
