# generated using pymatgen
data_V2P4H3O16
_symmetry_space_group_name_H-M   'P 1'
_cell_length_a   4.96323473
_cell_length_b   8.00243788
_cell_length_c   7.32629393
_cell_angle_alpha   89.18484886
_cell_angle_beta   102.25856187
_cell_angle_gamma   88.28441906
_symmetry_Int_Tables_number   1
_chemical_formula_structural   V2P4H3O16
_chemical_formula_sum   'V2 P4 H3 O16'
_cell_volume   284.16035641
_cell_formula_units_Z   1
loop_
 _symmetry_equiv_pos_site_id
 _symmetry_equiv_pos_as_xyz
  1  'x, y, z'
loop_
 _atom_site_type_symbol
 _atom_site_label
 _atom_site_symmetry_multiplicity
 _atom_site_fract_x
 _atom_site_fract_y
 _atom_site_fract_z
 _atom_site_occupancy
  V  V0  1  0.00056175  0.99602017  0.49727202  1
  V  V1  1  0.49919746  0.50081029  0.00179885  1
  P  P2  1  0.09790092  0.33104612  0.24699632  1
  P  P3  1  0.39861954  0.84890023  0.23652189  1
  P  P4  1  0.59838381  0.15509262  0.75349629  1
  P  P5  1  0.90115604  0.66909010  0.75527504  1
  H  H6  1  0.42039043  0.43188355  0.43156914  1
  H  H7  1  0.57845800  0.56814063  0.56954326  1
  H  H8  1  0.93665365  0.01772447  0.96951239  1
  O  O9  1  0.16584861  0.57066353  0.84790245  1
  O  O10  1  0.02063982  0.15764171  0.30678316  1
  O  O11  1  0.21912524  0.84650591  0.39317645  1
  O  O12  1  0.22491152  0.42560845  0.43320056  1
  O  O13  1  0.32212586  0.07868777  0.65810085  1
  O  O14  1  0.54907362  0.33565915  0.81044542  1
  O  O15  1  0.25835147  0.95510833  0.07350461  1
  O  O16  1  0.30916709  0.32676471  0.12323561  1
  O  O17  1  0.68992943  0.67393916  0.87906459  1
  O  O18  1  0.73169349  0.04549750  0.92757401  1
  O  O19  1  0.45183577  0.66357918  0.19324771  1
  O  O20  1  0.68228854  0.91731388  0.34691382  1
  O  O21  1  0.77410012  0.57489992  0.56883973  1
  O  O22  1  0.78645678  0.15743685  0.60837216  1
  O  O23  1  0.97833243  0.84252073  0.69580392  1
  O  O24  1  0.83367961  0.42936405  0.15375175  1
