# generated using pymatgen
data_Li3GaN2
_symmetry_space_group_name_H-M   'P 1'
_cell_length_a   8.37915757
_cell_length_b   8.37915758
_cell_length_c   8.37915758
_cell_angle_alpha   109.47122067
_cell_angle_beta   109.47122067
_cell_angle_gamma   109.47122059
_symmetry_Int_Tables_number   1
_chemical_formula_structural   Li3GaN2
_chemical_formula_sum   'Li24 Ga8 N16'
_cell_volume   452.87587098
_cell_formula_units_Z   8
loop_
 _symmetry_equiv_pos_site_id
 _symmetry_equiv_pos_as_xyz
  1  'x, y, z'
loop_
 _atom_site_type_symbol
 _atom_site_label
 _atom_site_symmetry_multiplicity
 _atom_site_fract_x
 _atom_site_fract_y
 _atom_site_fract_z
 _atom_site_occupancy
  Li  Li0  1  0.99213616  0.46796945  0.23108863  1
  Li  Li1  1  0.73688082  0.76104753  0.26891137  1
  Li  Li2  1  0.76311918  0.03203055  0.02416672  1
  Li  Li3  1  0.73895247  0.47583328  0.50786384  1
  Li  Li4  1  0.47583328  0.50786384  0.73895247  1
  Li  Li5  1  0.23108863  0.99213616  0.46796945  1
  Li  Li6  1  0.76104753  0.26891137  0.73688082  1
  Li  Li7  1  0.02416672  0.76311918  0.03203055  1
  Li  Li8  1  0.46796945  0.23108863  0.99213616  1
  Li  Li9  1  0.26891137  0.73688082  0.76104753  1
  Li  Li10  1  0.03203055  0.02416672  0.76311918  1
  Li  Li11  1  0.50786384  0.73895247  0.47583328  1
  Li  Li12  1  0.00786384  0.53203055  0.76891137  1
  Li  Li13  1  0.26311918  0.23895247  0.73108863  1
  Li  Li14  1  0.23688082  0.96796945  0.97583328  1
  Li  Li15  1  0.26104753  0.52416672  0.49213616  1
  Li  Li16  1  0.52416672  0.49213616  0.26104753  1
  Li  Li17  1  0.76891137  0.00786384  0.53203055  1
  Li  Li18  1  0.23895247  0.73108863  0.26311918  1
  Li  Li19  1  0.49213616  0.26104753  0.52416672  1
  Li  Li20  1  0.53203055  0.76891137  0.00786384  1
  Li  Li21  1  0.73108863  0.26311918  0.23895247  1
  Li  Li22  1  0.96796945  0.97583328  0.23688082  1
  Li  Li23  1  0.97583328  0.23688082  0.96796945  1
  N  N24  1  0.97720039  0.72720039  0.25000000  1
  N  N25  1  0.00000000  0.50000000  0.50000000  1
  N  N26  1  0.50000000  0.00000000  0.50000000  1
  N  N27  1  0.50000000  0.50000000  0.00000000  1
  N  N28  1  0.25000000  0.47720039  0.22720039  1
  N  N29  1  0.02279961  0.27279961  0.75000000  1
  N  N30  1  0.27279961  0.75000000  0.02279961  1
  N  N31  1  0.47720039  0.22720039  0.25000000  1
  N  N32  1  0.25000000  0.97720039  0.72720039  1
  N  N33  1  0.77279961  0.75000000  0.52279961  1
  N  N34  1  0.52279961  0.77279961  0.75000000  1
  N  N35  1  0.72720039  0.25000000  0.97720039  1
  N  N36  1  0.22720039  0.25000000  0.47720039  1
  N  N37  1  0.75000000  0.52279961  0.77279961  1
  N  N38  1  0.75000000  0.02279961  0.27279961  1
  N  N39  1  0.00000000  0.00000000  0.00000000  1
  Ga  Ga40  1  0.23585030  0.23585030  0.23585030  1
  Ga  Ga41  1  0.00000000  0.26414970  0.50000000  1
  Ga  Ga42  1  0.50000000  0.00000000  0.26414970  1
  Ga  Ga43  1  0.26414970  0.50000000  0.00000000  1
  Ga  Ga44  1  0.76414970  0.76414970  0.76414970  1
  Ga  Ga45  1  0.00000000  0.73585030  0.50000000  1
  Ga  Ga46  1  0.50000000  0.00000000  0.73585030  1
  Ga  Ga47  1  0.73585030  0.50000000  0.00000000  1
