# generated using pymatgen
data_NbI2O
_symmetry_space_group_name_H-M   'P 1'
_cell_length_a   3.97272279
_cell_length_b   7.60452384
_cell_length_c   8.28224632
_cell_angle_alpha   104.51349644
_cell_angle_beta   103.89225918
_cell_angle_gamma   90.00334700
_symmetry_Int_Tables_number   1
_chemical_formula_structural   NbI2O
_chemical_formula_sum   'Nb2 I4 O2'
_cell_volume   234.65874024
_cell_formula_units_Z   2
loop_
 _symmetry_equiv_pos_site_id
 _symmetry_equiv_pos_as_xyz
  1  'x, y, z'
loop_
 _atom_site_type_symbol
 _atom_site_label
 _atom_site_symmetry_multiplicity
 _atom_site_fract_x
 _atom_site_fract_y
 _atom_site_fract_z
 _atom_site_occupancy
  O  O0  1  0.50274158  0.28714851  0.00086927  1
  Nb  Nb1  1  0.03682146  0.29170707  0.00055405  1
  I  I2  1  0.84995727  0.41816228  0.70393254  1
  I  I3  1  0.87227599  0.93426311  0.75694323  1
  I  I4  1  0.11551335  0.06572314  0.24307208  1
  I  I5  1  0.14647602  0.58184326  0.29606596  1
  O  O6  1  0.50189545  0.71285089  0.99911486  1
  Nb  Nb7  1  0.03631888  0.70830175  0.99944801  1
