# generated using pymatgen
data_TlP(HO2)2
_symmetry_space_group_name_H-M   'P 1'
_cell_length_a   14.64038793
_cell_length_b   4.62944420
_cell_length_c   6.56478360
_cell_angle_alpha   90.00000000
_cell_angle_beta   91.80822509
_cell_angle_gamma   90.00000000
_symmetry_Int_Tables_number   1
_chemical_formula_structural   TlP(HO2)2
_chemical_formula_sum   'Tl4 P4 H8 O16'
_cell_volume   444.71884992
_cell_formula_units_Z   4
loop_
 _symmetry_equiv_pos_site_id
 _symmetry_equiv_pos_as_xyz
  1  'x, y, z'
loop_
 _atom_site_type_symbol
 _atom_site_label
 _atom_site_symmetry_multiplicity
 _atom_site_fract_x
 _atom_site_fract_y
 _atom_site_fract_z
 _atom_site_occupancy
  Tl  Tl0  1  0.63222728  0.50216740  0.26491929  1
  Tl  Tl1  1  0.86777272  0.00216740  0.73508071  1
  Tl  Tl2  1  0.36777272  0.49783260  0.73508071  1
  Tl  Tl3  1  0.13222728  0.99783260  0.26491929  1
  P  P4  1  0.88088225  0.48253665  0.23953230  1
  P  P5  1  0.61911775  0.98253665  0.76046770  1
  P  P6  1  0.11911775  0.51746335  0.76046770  1
  P  P7  1  0.38088225  0.01746335  0.23953230  1
  H  H8  1  0.00000000  0.50000000  0.00000000  1
  H  H9  1  0.50000000  0.00000000  0.00000000  1
  H  H10  1  0.00000000  0.50000000  0.50000000  1
  H  H11  1  0.50000000  0.00000000  0.50000000  1
  H  H12  1  0.82296544  0.02457494  0.23972722  1
  H  H13  1  0.67703456  0.52457494  0.76027278  1
  H  H14  1  0.17703456  0.97542506  0.76027278  1
  H  H15  1  0.32296544  0.47542506  0.23972722  1
  O  O16  1  0.92641036  0.59447763  0.04293995  1
  O  O17  1  0.57358964  0.09447763  0.95706005  1
  O  O18  1  0.07358964  0.40552237  0.95706005  1
  O  O19  1  0.42641036  0.90552237  0.04293995  1
  O  O20  1  0.95369571  0.34852200  0.38943229  1
  O  O21  1  0.54630429  0.84852200  0.61056771  1
  O  O22  1  0.04630429  0.65147800  0.61056771  1
  O  O23  1  0.45369571  0.15147800  0.38943229  1
  O  O24  1  0.81457556  0.22490541  0.17106185  1
  O  O25  1  0.68542444  0.72490541  0.82893815  1
  O  O26  1  0.18542444  0.77509459  0.82893815  1
  O  O27  1  0.31457556  0.27509459  0.17106185  1
  O  O28  1  0.82322147  0.72168184  0.33169104  1
  O  O29  1  0.67677853  0.22168184  0.66830896  1
  O  O30  1  0.17677853  0.27831816  0.66830896  1
  O  O31  1  0.32322147  0.77831816  0.33169104  1
