# generated using pymatgen
data_KCrP2S7
_symmetry_space_group_name_H-M   'P 1'
_cell_length_a   6.58316186
_cell_length_b   6.51969230
_cell_length_c   6.51969230
_cell_angle_alpha   97.08745886
_cell_angle_beta   94.86653202
_cell_angle_gamma   94.86653198
_symmetry_Int_Tables_number   1
_chemical_formula_structural   KCrP2S7
_chemical_formula_sum   'K1 Cr1 P2 S7'
_cell_volume   275.39902740
_cell_formula_units_Z   1
loop_
 _symmetry_equiv_pos_site_id
 _symmetry_equiv_pos_as_xyz
  1  'x, y, z'
loop_
 _atom_site_type_symbol
 _atom_site_label
 _atom_site_symmetry_multiplicity
 _atom_site_fract_x
 _atom_site_fract_y
 _atom_site_fract_z
 _atom_site_occupancy
  P  P0  1  0.92507742  0.95049922  0.64209324  1
  P  P1  1  0.07492258  0.35790676  0.04950078  1
  S  S2  1  0.00000000  0.02736614  0.97263386  1
  S  S3  1  0.21626387  0.47929501  0.82110779  1
  S  S4  1  0.72937229  0.68950441  0.63340679  1
  S  S5  1  0.27062771  0.36659321  0.31049559  1
  S  S6  1  0.82815095  0.48950470  0.15530888  1
  S  S7  1  0.17184905  0.84469112  0.51049530  1
  S  S8  1  0.78373613  0.17889221  0.52070499  1
  K  K9  1  0.50000000  0.90161962  0.09838038  1
  Cr  Cr10  1  0.00000000  0.49852760  0.50147240  1
