# generated using pymatgen
data_Rb4SnO3
_symmetry_space_group_name_H-M   'P 1'
_cell_length_a   10.52266350
_cell_length_b   10.52266350
_cell_length_c   6.89818819
_cell_angle_alpha   83.33569452
_cell_angle_beta   96.66430548
_cell_angle_gamma   37.79584834
_symmetry_Int_Tables_number   1
_chemical_formula_structural   Rb4SnO3
_chemical_formula_sum   'Rb8 Sn2 O6'
_cell_volume   437.02044601
_cell_formula_units_Z   2
loop_
 _symmetry_equiv_pos_site_id
 _symmetry_equiv_pos_as_xyz
  1  'x, y, z'
loop_
 _atom_site_type_symbol
 _atom_site_label
 _atom_site_symmetry_multiplicity
 _atom_site_fract_x
 _atom_site_fract_y
 _atom_site_fract_z
 _atom_site_occupancy
  Rb  Rb0  1  0.61710351  0.68703869  0.79510436  1
  Rb  Rb1  1  0.44963387  0.47433326  0.74474818  1
  Rb  Rb2  1  0.03922686  0.05211553  0.76219737  1
  Rb  Rb3  1  0.26113623  0.24595599  0.76553078  1
  Rb  Rb4  1  0.31296131  0.38289649  0.29510436  1
  Rb  Rb5  1  0.52566674  0.55036613  0.24474818  1
  Rb  Rb6  1  0.94788447  0.96077314  0.26219737  1
  Rb  Rb7  1  0.75404401  0.73886377  0.26553078  1
  Sn  Sn8  1  0.88805920  0.83677778  0.74530705  1
  Sn  Sn9  1  0.16322222  0.11194080  0.24530705  1
  O  O10  1  0.15095306  0.70457992  0.96423923  1
  O  O11  1  0.04827267  0.64381744  0.55669746  1
  O  O12  1  0.29542008  0.84904694  0.46423923  1
  O  O13  1  0.35618256  0.95172733  0.05669746  1
  O  O14  1  0.71391507  0.13530883  0.55886255  1
  O  O15  1  0.86469117  0.28608493  0.05886255  1
