# generated using pymatgen
data_ZnS
_symmetry_space_group_name_H-M   'P 1'
_cell_length_a   3.85220071
_cell_length_b   3.85220067
_cell_length_c   25.21722561
_cell_angle_alpha   90.00000000
_cell_angle_beta   90.00000000
_cell_angle_gamma   120.00000040
_symmetry_Int_Tables_number   1
_chemical_formula_structural   ZnS
_chemical_formula_sum   'Zn8 S8'
_cell_volume   324.07515964
_cell_formula_units_Z   8
loop_
 _symmetry_equiv_pos_site_id
 _symmetry_equiv_pos_as_xyz
  1  'x, y, z'
loop_
 _atom_site_type_symbol
 _atom_site_label
 _atom_site_symmetry_multiplicity
 _atom_site_fract_x
 _atom_site_fract_y
 _atom_site_fract_z
 _atom_site_occupancy
  Zn  Zn0  1  0.33333300  0.66666700  0.12503654  1
  Zn  Zn1  1  0.00000000  0.00000000  0.00005104  1
  Zn  Zn2  1  0.66666700  0.33333300  0.62502948  1
  Zn  Zn3  1  0.66666700  0.33333300  0.87504430  1
  Zn  Zn4  1  0.00000000  0.00000000  0.75004392  1
  Zn  Zn5  1  0.33333300  0.66666700  0.37505193  1
  Zn  Zn6  1  0.00000000  0.00000000  0.50003624  1
  Zn  Zn7  1  0.66666700  0.33333300  0.25002927  1
  S  S8  1  0.66666700  0.33333300  0.34380225  1
  S  S9  1  0.66666700  0.33333300  0.96879691  1
  S  S10  1  0.33333300  0.66666700  0.21872813  1
  S  S11  1  0.00000000  0.00000000  0.59372083  1
  S  S12  1  0.00000000  0.00000000  0.09375476  1
  S  S13  1  0.00000000  0.00000000  0.84375216  1
  S  S14  1  0.33333300  0.66666700  0.46875777  1
  S  S15  1  0.66666700  0.33333300  0.71876448  1
