# generated using pymatgen
data_Li2Ti(BO3)2
_symmetry_space_group_name_H-M   'P 1'
_cell_length_a   6.22541968
_cell_length_b   5.15373925
_cell_length_c   8.32051303
_cell_angle_alpha   87.18431867
_cell_angle_beta   74.93564792
_cell_angle_gamma   87.47937237
_symmetry_Int_Tables_number   1
_chemical_formula_structural   Li2Ti(BO3)2
_chemical_formula_sum   'Li4 Ti2 B4 O12'
_cell_volume   257.33674678
_cell_formula_units_Z   2
loop_
 _symmetry_equiv_pos_site_id
 _symmetry_equiv_pos_as_xyz
  1  'x, y, z'
loop_
 _atom_site_type_symbol
 _atom_site_label
 _atom_site_symmetry_multiplicity
 _atom_site_fract_x
 _atom_site_fract_y
 _atom_site_fract_z
 _atom_site_occupancy
  Li  Li0  1  0.35320593  0.65138984  0.39922656  1
  Li  Li1  1  0.45721682  0.81467467  0.76277857  1
  Li  Li2  1  0.49108918  0.15701558  0.21252860  1
  Li  Li3  1  0.73240858  0.16297877  0.66549741  1
  Ti  Ti4  1  0.00301423  0.64047934  0.74699874  1
  Ti  Ti5  1  0.98831058  0.34628749  0.24656800  1
  B  B6  1  0.18359145  0.15675707  0.56580074  1
  B  B7  1  0.69399609  0.65755028  0.09260788  1
  B  B8  1  0.31060976  0.32684213  0.91291693  1
  B  B9  1  0.86594007  0.83365026  0.44704074  1
  O  O10  1  0.98979809  0.66817205  0.32965414  1
  O  O11  1  0.24589203  0.26920663  0.08768953  1
  O  O12  1  0.19896770  0.88387161  0.59968141  1
  O  O13  1  0.29987685  0.27584223  0.42533013  1
  O  O14  1  0.55396212  0.79283794  0.20647512  1
  O  O15  1  0.22385819  0.56686213  0.86257099  1
  O  O16  1  0.77404087  0.40153272  0.13374349  1
  O  O17  1  0.44838068  0.17433868  0.80715893  1
  O  O18  1  0.77049694  0.75731190  0.60905988  1
  O  O19  1  0.85215300  0.09666386  0.40480884  1
  O  O20  1  0.77510588  0.73580993  0.92459713  1
  O  O21  1  0.01508297  0.29392491  0.68426623  1
