# generated using pymatgen
data_LiSb(PO3)4
_symmetry_space_group_name_H-M   'P 1'
_cell_length_a   5.57017708
_cell_length_b   14.20799916
_cell_length_c   7.50387489
_cell_angle_alpha   90.00000000
_cell_angle_beta   96.02287195
_cell_angle_gamma   90.00000000
_symmetry_Int_Tables_number   1
_chemical_formula_structural   LiSb(PO3)4
_chemical_formula_sum   'Li2 Sb2 P8 O24'
_cell_volume   590.58661704
_cell_formula_units_Z   2
loop_
 _symmetry_equiv_pos_site_id
 _symmetry_equiv_pos_as_xyz
  1  'x, y, z'
loop_
 _atom_site_type_symbol
 _atom_site_label
 _atom_site_symmetry_multiplicity
 _atom_site_fract_x
 _atom_site_fract_y
 _atom_site_fract_z
 _atom_site_occupancy
  Li  Li0  1  0.31869449  0.49718237  0.89157230  1
  Li  Li1  1  0.68130551  0.99718237  0.10842770  1
  O  O2  1  0.05286447  0.73939220  0.96272295  1
  O  O3  1  0.04903264  0.88283527  0.77688247  1
  O  O4  1  0.12964899  0.39345183  0.92912223  1
  O  O5  1  0.01654456  0.64074157  0.23033747  1
  O  O6  1  0.07265877  0.50728007  0.45301284  1
  O  O7  1  0.16082743  0.34231544  0.53737039  1
  O  O8  1  0.18201881  0.66729832  0.55997744  1
  O  O9  1  0.26673502  0.12641156  0.53143674  1
  O  O10  1  0.28280271  0.89719004  0.51030032  1
  O  O11  1  0.34505798  0.29435956  0.18700135  1
  O  O12  1  0.33964275  0.60600953  0.02333861  1
  O  O13  1  0.37790933  0.75322163  0.22707139  1
  O  O14  1  0.62209067  0.25322163  0.77292861  1
  O  O15  1  0.66035725  0.10600953  0.97666139  1
  O  O16  1  0.65494202  0.79435956  0.81299865  1
  O  O17  1  0.71719729  0.39719004  0.48969968  1
  O  O18  1  0.73326498  0.62641156  0.46856326  1
  O  O19  1  0.81798119  0.16729832  0.44002256  1
  O  O20  1  0.83917257  0.84231544  0.46262961  1
  O  O21  1  0.92734123  0.00728007  0.54698716  1
  O  O22  1  0.98345544  0.14074157  0.76966253  1
  O  O23  1  0.87035101  0.89345183  0.07087777  1
  O  O24  1  0.95096736  0.38283527  0.22311753  1
  O  O25  1  0.94713553  0.23939220  0.03727705  1
  P  P26  1  0.00548225  0.11637238  0.56373717  1
  P  P27  1  0.03112472  0.90214800  0.56616765  1
  P  P28  1  0.11522535  0.32985533  0.08498796  1
  P  P29  1  0.22144540  0.68401090  0.11269094  1
  P  P30  1  0.77855460  0.18401090  0.88730906  1
  P  P31  1  0.88477465  0.82985533  0.91501204  1
  P  P32  1  0.96887528  0.40214800  0.43383235  1
  P  P33  1  0.99451775  0.61637238  0.43626283  1
  Sb  Sb34  1  0.48578359  0.26077201  0.48380615  1
  Sb  Sb35  1  0.51421641  0.76077201  0.51619385  1
