# generated using pymatgen
data_Li2MnP2O7
_symmetry_space_group_name_H-M   'P 1'
_cell_length_a   5.09198130
_cell_length_b   7.21884506
_cell_length_c   8.53406192
_cell_angle_alpha   90.00000000
_cell_angle_beta   90.00000000
_cell_angle_gamma   70.17089135
_symmetry_Int_Tables_number   1
_chemical_formula_structural   Li2MnP2O7
_chemical_formula_sum   'Li4 Mn2 P4 O14'
_cell_volume   295.09741399
_cell_formula_units_Z   2
loop_
 _symmetry_equiv_pos_site_id
 _symmetry_equiv_pos_as_xyz
  1  'x, y, z'
loop_
 _atom_site_type_symbol
 _atom_site_label
 _atom_site_symmetry_multiplicity
 _atom_site_fract_x
 _atom_site_fract_y
 _atom_site_fract_z
 _atom_site_occupancy
  Li  Li0  1  0.18304222  0.34673389  0.14743713  1
  Li  Li1  1  0.65526594  0.08455201  0.32398168  1
  Li  Li2  1  0.34473606  0.91545099  0.82398268  1
  Li  Li3  1  0.81695778  0.65326611  0.64743713  1
  Mn  Mn4  1  0.19406227  0.27915165  0.50716826  1
  Mn  Mn5  1  0.80593773  0.72084835  0.00716826  1
  P  P6  1  0.38936306  0.48142835  0.81349879  1
  P  P7  1  0.21269691  0.91737704  0.20580774  1
  P  P8  1  0.78730309  0.08262296  0.70580774  1
  P  P9  1  0.61063694  0.51857165  0.31349879  1
  O  O10  1  0.07662943  0.10229949  0.68718000  1
  O  O11  1  0.19723316  0.10642187  0.29402698  1
  O  O12  1  0.21407285  0.50431378  0.96282267  1
  O  O13  1  0.21494238  0.50118711  0.66432592  1
  O  O14  1  0.43819461  0.38042391  0.30978801  1
  O  O15  1  0.63165739  0.09530714  0.55054978  1
  O  O16  1  0.60506070  0.25606130  0.82258304  1
  O  O17  1  0.39493930  0.74393870  0.32258304  1
  O  O18  1  0.36834261  0.90469286  0.05054978  1
  O  O19  1  0.56180539  0.61957609  0.80978801  1
  O  O20  1  0.78505762  0.49881289  0.16432592  1
  O  O21  1  0.78592715  0.49568622  0.46282267  1
  O  O22  1  0.80276684  0.89357813  0.79402698  1
  O  O23  1  0.92337057  0.89770051  0.18718000  1
