# generated using pymatgen
data_Tl3AgTe2
_symmetry_space_group_name_H-M   'P 1'
_cell_length_a   7.68710136
_cell_length_b   10.04823273
_cell_length_c   11.28154307
_cell_angle_alpha   116.32861219
_cell_angle_beta   90.00000000
_cell_angle_gamma   90.00000000
_symmetry_Int_Tables_number   1
_chemical_formula_structural   Tl3AgTe2
_chemical_formula_sum   'Tl12 Ag4 Te8'
_cell_volume   781.01120420
_cell_formula_units_Z   4
loop_
 _symmetry_equiv_pos_site_id
 _symmetry_equiv_pos_as_xyz
  1  'x, y, z'
loop_
 _atom_site_type_symbol
 _atom_site_label
 _atom_site_symmetry_multiplicity
 _atom_site_fract_x
 _atom_site_fract_y
 _atom_site_fract_z
 _atom_site_occupancy
  Tl  Tl0  1  0.28782395  0.33297690  0.41446311  1
  Tl  Tl1  1  0.21217605  0.83297690  0.41446311  1
  Tl  Tl2  1  0.01153576  0.01017499  0.21259723  1
  Tl  Tl3  1  0.99506239  0.53449527  0.76639720  1
  Tl  Tl4  1  0.71217605  0.66702310  0.58553689  1
  Tl  Tl5  1  0.50493761  0.03449527  0.76639720  1
  Tl  Tl6  1  0.98846424  0.98982501  0.78740277  1
  Tl  Tl7  1  0.00493761  0.46550473  0.23360280  1
  Tl  Tl8  1  0.51153576  0.48982501  0.78740277  1
  Tl  Tl9  1  0.48846424  0.51017499  0.21259723  1
  Tl  Tl10  1  0.49506239  0.96550473  0.23360280  1
  Tl  Tl11  1  0.78782395  0.16702310  0.58553689  1
  Ag  Ag12  1  0.83346608  0.67525043  0.09375616  1
  Ag  Ag13  1  0.16653392  0.32474957  0.90624384  1
  Ag  Ag14  1  0.66653392  0.17525043  0.09375616  1
  Ag  Ag15  1  0.33346608  0.82474957  0.90624384  1
  Te  Te16  1  0.23172545  0.19057103  0.62751023  1
  Te  Te17  1  0.76827455  0.80942897  0.37248977  1
  Te  Te18  1  0.26827455  0.69057103  0.62751023  1
  Te  Te19  1  0.73172545  0.30942897  0.37248977  1
  Te  Te20  1  0.22841491  0.64547528  0.03762525  1
  Te  Te21  1  0.72841491  0.85452472  0.96237475  1
  Te  Te22  1  0.27158509  0.14547528  0.03762525  1
  Te  Te23  1  0.77158509  0.35452472  0.96237475  1
