# generated using pymatgen
data_RbSbF6
_symmetry_space_group_name_H-M   'P 1'
_cell_length_a   5.26807609
_cell_length_b   5.26807609
_cell_length_c   5.26807610
_cell_angle_alpha   96.62362742
_cell_angle_beta   96.62362745
_cell_angle_gamma   96.62362731
_symmetry_Int_Tables_number   1
_chemical_formula_structural   RbSbF6
_chemical_formula_sum   'Rb1 Sb1 F6'
_cell_volume   143.02623905
_cell_formula_units_Z   1
loop_
 _symmetry_equiv_pos_site_id
 _symmetry_equiv_pos_as_xyz
  1  'x, y, z'
loop_
 _atom_site_type_symbol
 _atom_site_label
 _atom_site_symmetry_multiplicity
 _atom_site_fract_x
 _atom_site_fract_y
 _atom_site_fract_z
 _atom_site_occupancy
  F  F0  1  0.21119559  0.29479025  0.91917284  1
  F  F1  1  0.29479025  0.91917284  0.21119559  1
  F  F2  1  0.08082716  0.78880441  0.70520975  1
  F  F3  1  0.70520975  0.08082716  0.78880441  1
  F  F4  1  0.78880441  0.70520975  0.08082716  1
  F  F5  1  0.91917284  0.21119559  0.29479025  1
  Rb  Rb6  1  0.50000000  0.50000000  0.50000000  1
  Sb  Sb7  1  0.00000000  0.00000000  0.00000000  1
