# generated using pymatgen
data_Li2TiVO4
_symmetry_space_group_name_H-M   'P 1'
_cell_length_a   5.22885606
_cell_length_b   5.98803473
_cell_length_c   7.90521881
_cell_angle_alpha   79.07605632
_cell_angle_beta   70.98484725
_cell_angle_gamma   90.16731633
_symmetry_Int_Tables_number   1
_chemical_formula_structural   Li2TiVO4
_chemical_formula_sum   'Li6 Ti3 V3 O12'
_cell_volume   229.21201704
_cell_formula_units_Z   3
loop_
 _symmetry_equiv_pos_site_id
 _symmetry_equiv_pos_as_xyz
  1  'x, y, z'
loop_
 _atom_site_type_symbol
 _atom_site_label
 _atom_site_symmetry_multiplicity
 _atom_site_fract_x
 _atom_site_fract_y
 _atom_site_fract_z
 _atom_site_occupancy
  Li  Li0  1  0.00108078  0.49876322  0.99929475  1
  Li  Li1  1  0.00325267  0.33015085  0.66913591  1
  Li  Li2  1  0.00240811  0.00911740  0.99924634  1
  Li  Li3  1  0.99890436  0.66793594  0.33402788  1
  Li  Li4  1  0.99759096  0.15758765  0.33407840  1
  Li  Li5  1  0.99676168  0.83649793  0.66418203  1
  Ti  Ti6  1  0.50275951  0.76775676  0.00171956  1
  Ti  Ti7  1  0.49723785  0.39891240  0.33162596  1
  Ti  Ti8  1  0.49999810  0.58332822  0.66667551  1
  V  V9  1  0.49866092  0.26125089  0.00175947  1
  V  V10  1  0.50134741  0.90542636  0.33156453  1
  V  V11  1  0.49999780  0.08331056  0.66666955  1
  O  O12  1  0.26135958  0.95230074  0.15596937  1
  O  O13  1  0.27199765  0.47580838  0.17035872  1
  O  O14  1  0.26355488  0.13385882  0.48827068  1
  O  O15  1  0.27389519  0.60711178  0.50256538  1
  O  O16  1  0.26496873  0.30836925  0.82510567  1
  O  O17  1  0.27433343  0.77924076  0.83348809  1
  O  O18  1  0.72800610  0.69086058  0.16298528  1
  O  O19  1  0.73864114  0.21438603  0.17735903  1
  O  O20  1  0.72564232  0.38738886  0.49986542  1
  O  O21  1  0.73503915  0.85827052  0.50821875  1
  O  O22  1  0.72611478  0.55956406  0.83076868  1
  O  O23  1  0.73644792  0.03280205  0.84506404  1
