# generated using pymatgen
data_Zn3(PS4)2
_symmetry_space_group_name_H-M   'P 1'
_cell_length_a   7.90561621
_cell_length_b   7.90561621
_cell_length_c   9.20190536
_cell_angle_alpha   90.00000000
_cell_angle_beta   90.00000000
_cell_angle_gamma   90.00000000
_symmetry_Int_Tables_number   1
_chemical_formula_structural   Zn3(PS4)2
_chemical_formula_sum   'Zn6 P4 S16'
_cell_volume   575.10774512
_cell_formula_units_Z   2
loop_
 _symmetry_equiv_pos_site_id
 _symmetry_equiv_pos_as_xyz
  1  'x, y, z'
loop_
 _atom_site_type_symbol
 _atom_site_label
 _atom_site_symmetry_multiplicity
 _atom_site_fract_x
 _atom_site_fract_y
 _atom_site_fract_z
 _atom_site_occupancy
  P  P0  1  0.74343235  0.24343235  0.25000000  1
  P  P1  1  0.24343235  0.25656765  0.75000000  1
  P  P2  1  0.75656765  0.74343235  0.75000000  1
  P  P3  1  0.25656765  0.75656765  0.25000000  1
  S  S4  1  0.24775438  0.52311715  0.13838224  1
  S  S5  1  0.52311715  0.75224562  0.86161776  1
  S  S6  1  0.97688285  0.25224562  0.36161776  1
  S  S7  1  0.02311715  0.74775438  0.36161776  1
  S  S8  1  0.74775438  0.97688285  0.63838224  1
  S  S9  1  0.25224562  0.02311715  0.63838224  1
  S  S10  1  0.76430518  0.03346781  0.12541914  1
  S  S11  1  0.03346781  0.23569482  0.87458086  1
  S  S12  1  0.96653219  0.76430518  0.87458086  1
  S  S13  1  0.23569482  0.96653219  0.12541914  1
  S  S14  1  0.53346781  0.26430518  0.37458086  1
  S  S15  1  0.46653219  0.73569482  0.37458086  1
  S  S16  1  0.73569482  0.53346781  0.62541914  1
  S  S17  1  0.26430518  0.46653219  0.62541914  1
  S  S18  1  0.75224562  0.47688285  0.13838224  1
  S  S19  1  0.47688285  0.24775438  0.86161776  1
  Zn  Zn20  1  0.50000000  0.00000000  0.48187625  1
  Zn  Zn21  1  0.00000000  0.50000000  0.51812375  1
  Zn  Zn22  1  0.50000000  0.00000000  0.01812375  1
  Zn  Zn23  1  0.00000000  0.50000000  0.98187625  1
  Zn  Zn24  1  0.50000000  0.50000000  0.00000000  1
  Zn  Zn25  1  0.00000000  0.00000000  0.50000000  1
