# generated using pymatgen
data_Zr4MnO9
_symmetry_space_group_name_H-M   'P 1'
_cell_length_a   6.34907139
_cell_length_b   5.21126400
_cell_length_c   6.38112225
_cell_angle_alpha   115.35667244
_cell_angle_beta   79.52062704
_cell_angle_gamma   114.94020365
_symmetry_Int_Tables_number   1
_chemical_formula_structural   Zr4MnO9
_chemical_formula_sum   'Zr4 Mn1 O9'
_cell_volume   172.99810682
_cell_formula_units_Z   1
loop_
 _symmetry_equiv_pos_site_id
 _symmetry_equiv_pos_as_xyz
  1  'x, y, z'
loop_
 _atom_site_type_symbol
 _atom_site_label
 _atom_site_symmetry_multiplicity
 _atom_site_fract_x
 _atom_site_fract_y
 _atom_site_fract_z
 _atom_site_occupancy
  Zr  Zr0  1  0.42007411  0.64084584  0.80285897  1
  Zr  Zr1  1  0.00547071  0.98360634  0.03007024  1
  Zr  Zr2  1  0.61456266  0.42648283  0.23082254  1
  Zr  Zr3  1  0.77461089  0.21679507  0.60503668  1
  Mn  Mn4  1  0.20200746  0.76464027  0.36235969  1
  O  O5  1  0.08790522  0.61861189  0.72360939  1
  O  O6  1  0.68877404  0.55651023  0.94745310  1
  O  O7  1  0.48495313  0.73842612  0.47395687  1
  O  O8  1  0.23188701  0.39160368  0.00618730  1
  O  O9  1  0.34382400  0.00186719  0.09702111  1
  O  O10  1  0.48555150  0.27159364  0.53914426  1
  O  O11  1  0.75698782  0.01212305  0.83786937  1
  O  O12  1  0.86692810  0.32255070  0.29648713  1
  O  O13  1  0.93646235  0.90434214  0.34712434  1
