# generated using pymatgen
data_Si2H6Se
_symmetry_space_group_name_H-M   'P 1'
_cell_length_a   9.00699427
_cell_length_b   9.00699427
_cell_length_c   15.88946730
_cell_angle_alpha   90.00000000
_cell_angle_beta   90.00000000
_cell_angle_gamma   90.00000000
_symmetry_Int_Tables_number   1
_chemical_formula_structural   Si2H6Se
_chemical_formula_sum   'Si16 H48 Se8'
_cell_volume   1289.04806265
_cell_formula_units_Z   8
loop_
 _symmetry_equiv_pos_site_id
 _symmetry_equiv_pos_as_xyz
  1  'x, y, z'
loop_
 _atom_site_type_symbol
 _atom_site_label
 _atom_site_symmetry_multiplicity
 _atom_site_fract_x
 _atom_site_fract_y
 _atom_site_fract_z
 _atom_site_occupancy
  H  H0  1  0.85003736  0.62670814  0.42999654  1
  H  H1  1  0.14996264  0.37329186  0.92999654  1
  H  H2  1  0.62670814  0.85003736  0.57000346  1
  H  H3  1  0.12670814  0.64996264  0.67999654  1
  H  H4  1  0.87329186  0.35003736  0.17999654  1
  H  H5  1  0.64996264  0.12670814  0.32000346  1
  H  H6  1  0.35003736  0.87329186  0.82000346  1
  H  H7  1  0.37329186  0.14996264  0.07000346  1
  H  H8  1  0.60289695  0.64720537  0.36650829  1
  H  H9  1  0.39710305  0.35279463  0.86650829  1
  H  H10  1  0.64720537  0.60289695  0.63349171  1
  H  H11  1  0.14720537  0.89710305  0.61650829  1
  H  H12  1  0.85279463  0.10289695  0.11650829  1
  H  H13  1  0.89710305  0.14720537  0.38349171  1
  H  H14  1  0.10289695  0.85279463  0.88349171  1
  H  H15  1  0.35279463  0.39710305  0.13349171  1
  H  H16  1  0.77951620  0.46649688  0.31143632  1
  H  H17  1  0.73318992  0.83907169  0.08492116  1
  H  H18  1  0.22048380  0.53350312  0.81143632  1
  H  H19  1  0.96649688  0.72048380  0.56143632  1
  H  H20  1  0.03350312  0.27951620  0.06143632  1
  H  H21  1  0.72048380  0.96649688  0.43856368  1
  H  H22  1  0.27951620  0.03350312  0.93856368  1
  H  H23  1  0.53350312  0.22048380  0.18856368  1
  H  H24  1  0.37925758  0.37337151  0.34547973  1
  H  H25  1  0.12662849  0.87925758  0.09547973  1
  H  H26  1  0.87337151  0.12074242  0.59547973  1
  H  H27  1  0.87925758  0.12662849  0.90452027  1
  H  H28  1  0.12074242  0.87337151  0.40452027  1
  H  H29  1  0.62074242  0.62662849  0.84547973  1
  H  H30  1  0.37337151  0.37925758  0.65452027  1
  H  H31  1  0.62662849  0.62074242  0.15452027  1
  H  H32  1  0.13136315  0.45849624  0.30734785  1
  H  H33  1  0.04150376  0.63136315  0.05734785  1
  H  H34  1  0.95849624  0.36863685  0.55734785  1
  H  H35  1  0.63136315  0.04150376  0.94265215  1
  H  H36  1  0.36863685  0.95849624  0.44265215  1
  H  H37  1  0.86863685  0.54150376  0.80734785  1
  H  H38  1  0.45849624  0.13136315  0.69265215  1
  H  H39  1  0.54150376  0.86863685  0.19265215  1
  H  H40  1  0.16092831  0.26681008  0.41507884  1
  H  H41  1  0.23318992  0.66092831  0.16507884  1
  H  H42  1  0.76681008  0.33907169  0.66507884  1
  H  H43  1  0.66092831  0.23318992  0.83492116  1
  H  H44  1  0.33907169  0.76681008  0.33492116  1
  H  H45  1  0.83907169  0.73318992  0.91507884  1
  H  H46  1  0.26681008  0.16092831  0.58492116  1
  H  H47  1  0.46649688  0.77951620  0.68856368  1
  Si  Si48  1  0.76300425  0.61575078  0.35062727  1
  Si  Si49  1  0.23699575  0.38424922  0.85062727  1
  Si  Si50  1  0.61575078  0.76300425  0.64937273  1
  Si  Si51  1  0.11575078  0.73699575  0.60062727  1
  Si  Si52  1  0.88424922  0.26300425  0.10062727  1
  Si  Si53  1  0.73699575  0.11575078  0.39937273  1
  Si  Si54  1  0.26300425  0.88424922  0.89937273  1
  Si  Si55  1  0.38424922  0.23699575  0.14937273  1
  Si  Si56  1  0.17189492  0.72101357  0.08504113  1
  Si  Si57  1  0.82810508  0.27898643  0.58504113  1
  Si  Si58  1  0.72101357  0.17189492  0.91495887  1
  Si  Si59  1  0.27898643  0.82810508  0.41495887  1
  Si  Si60  1  0.22101357  0.32810508  0.33504113  1
  Si  Si61  1  0.77898643  0.67189492  0.83504113  1
  Si  Si62  1  0.32810508  0.22101357  0.66495887  1
  Si  Si63  1  0.67189492  0.77898643  0.16495887  1
  Se  Se64  1  0.20549153  0.13879876  0.23774415  1
  Se  Se65  1  0.36120124  0.70549153  0.98774415  1
  Se  Se66  1  0.63879876  0.29450847  0.48774415  1
  Se  Se67  1  0.29450847  0.63879876  0.51225585  1
  Se  Se68  1  0.79450847  0.86120124  0.73774415  1
  Se  Se69  1  0.13879876  0.20549153  0.76225585  1
  Se  Se70  1  0.86120124  0.79450847  0.26225585  1
  Se  Se71  1  0.70549153  0.36120124  0.01225585  1
