# generated using pymatgen
data_Ca4GeN4
_symmetry_space_group_name_H-M   'P 1'
_cell_length_a   6.07214412
_cell_length_b   9.30557836
_cell_length_c   10.93284698
_cell_angle_alpha   113.25481548
_cell_angle_beta   90.00000000
_cell_angle_gamma   90.00000000
_symmetry_Int_Tables_number   1
_chemical_formula_structural   Ca4GeN4
_chemical_formula_sum   'Ca16 Ge4 N16'
_cell_volume   567.57055810
_cell_formula_units_Z   4
loop_
 _symmetry_equiv_pos_site_id
 _symmetry_equiv_pos_as_xyz
  1  'x, y, z'
loop_
 _atom_site_type_symbol
 _atom_site_label
 _atom_site_symmetry_multiplicity
 _atom_site_fract_x
 _atom_site_fract_y
 _atom_site_fract_z
 _atom_site_occupancy
  N  N0  1  0.25310758  0.57392538  0.98551991  1
  N  N1  1  0.75310758  0.92607462  0.51448009  1
  N  N2  1  0.74689242  0.42607462  0.01448009  1
  N  N3  1  0.24689242  0.07392538  0.48551991  1
  N  N4  1  0.08540104  0.64980336  0.31354604  1
  N  N5  1  0.58540104  0.85019664  0.18645396  1
  N  N6  1  0.38854597  0.41958701  0.61692811  1
  N  N7  1  0.88854597  0.08041299  0.88307189  1
  N  N8  1  0.61145403  0.58041299  0.38307189  1
  N  N9  1  0.11145403  0.91958701  0.11692811  1
  N  N10  1  0.48041943  0.79450219  0.89005557  1
  N  N11  1  0.98041943  0.70549781  0.60994443  1
  N  N12  1  0.51958057  0.20549781  0.10994443  1
  N  N13  1  0.01958057  0.29450219  0.39005557  1
  N  N14  1  0.91459896  0.35019664  0.68645396  1
  N  N15  1  0.41459896  0.14980336  0.81354604  1
  Ca  Ca16  1  0.41645316  0.49906144  0.15402889  1
  Ca  Ca17  1  0.91645316  1.00093856  0.34597111  1
  Ca  Ca18  1  0.58354684  0.50093856  0.84597111  1
  Ca  Ca19  1  0.08354684  -0.00093856  0.65402889  1
  Ca  Ca20  1  0.92374035  0.66737584  0.12090522  1
  Ca  Ca21  1  0.42374035  0.83262416  0.37909478  1
  Ca  Ca22  1  0.15676295  0.62381873  0.76905117  1
  Ca  Ca23  1  0.65676295  0.87618127  0.73094883  1
  Ca  Ca24  1  0.84323705  0.37618127  0.23094883  1
  Ca  Ca25  1  0.34323705  0.12381873  0.26905117  1
  Ca  Ca26  1  0.74440203  0.46571017  0.54432202  1
  Ca  Ca27  1  0.24440203  0.03428983  0.95567798  1
  Ca  Ca28  1  0.25559797  0.53428983  0.45567798  1
  Ca  Ca29  1  0.75559797  0.96571017  0.04432202  1
  Ca  Ca30  1  0.07625965  0.33262416  0.87909478  1
  Ca  Ca31  1  0.57625965  0.16737584  0.62090522  1
  Ge  Ge32  1  0.14118413  0.28354381  0.55296536  1
  Ge  Ge33  1  0.64118413  0.21645619  0.94703464  1
  Ge  Ge34  1  0.85881587  0.71645619  0.44703464  1
  Ge  Ge35  1  0.35881587  0.78354381  0.05296536  1
