# generated using pymatgen
data_NaCuPO4
_symmetry_space_group_name_H-M   'P 1'
_cell_length_a   4.84793744
_cell_length_b   7.31164030
_cell_length_c   9.83824586
_cell_angle_alpha   90.00000000
_cell_angle_beta   90.00000000
_cell_angle_gamma   90.00000000
_symmetry_Int_Tables_number   1
_chemical_formula_structural   NaCuPO4
_chemical_formula_sum   'Na4 Cu4 P4 O16'
_cell_volume   348.73014972
_cell_formula_units_Z   4
loop_
 _symmetry_equiv_pos_site_id
 _symmetry_equiv_pos_as_xyz
  1  'x, y, z'
loop_
 _atom_site_type_symbol
 _atom_site_label
 _atom_site_symmetry_multiplicity
 _atom_site_fract_x
 _atom_site_fract_y
 _atom_site_fract_z
 _atom_site_occupancy
  Na  Na0  1  0.98330109  0.73288892  0.81243983  1
  Na  Na1  1  0.51669891  0.26711108  0.31243983  1
  Na  Na2  1  0.01669891  0.23288892  0.68756017  1
  Na  Na3  1  0.48330109  0.76711108  0.18756017  1
  Cu  Cu4  1  0.50080589  0.43569002  0.95748262  1
  Cu  Cu5  1  1.00080589  0.06430998  0.04251738  1
  Cu  Cu6  1  0.49919411  0.93569002  0.54251738  1
  Cu  Cu7  1  -0.00080589  0.56430998  0.45748262  1
  P  P8  1  0.06371658  0.97229510  0.36529512  1
  P  P9  1  0.93628342  0.47229510  0.13470488  1
  P  P10  1  0.56371658  0.52770490  0.63470488  1
  P  P11  1  0.43628342  0.02770490  0.86529512  1
  O  O12  1  0.83464485  0.52647258  0.27877645  1
  O  O13  1  0.74592771  0.97684048  0.37530294  1
  O  O14  1  0.75407229  0.02315952  0.87530294  1
  O  O15  1  0.79340640  0.60561688  0.03187794  1
  O  O16  1  0.20659360  0.10561688  0.46812206  1
  O  O17  1  0.66535515  0.47352742  0.77877645  1
  O  O18  1  0.30552387  0.22043267  0.89631480  1
  O  O19  1  0.19447613  0.77956733  0.39631480  1
  O  O20  1  0.25407229  0.47684048  0.12469706  1
  O  O21  1  0.24592771  0.52315952  0.62469706  1
  O  O22  1  0.16535515  0.02647258  0.22122355  1
  O  O23  1  0.33464485  0.97352742  0.72122355  1
  O  O24  1  0.69447613  0.72043267  0.60368520  1
  O  O25  1  0.70659360  0.39438312  0.53187794  1
  O  O26  1  0.80552387  0.27956733  0.10368520  1
  O  O27  1  0.29340640  0.89438312  0.96812206  1
