# generated using pymatgen
data_Sc2O3
_symmetry_space_group_name_H-M   'P 1'
_cell_length_a   5.45787140
_cell_length_b   9.33456821
_cell_length_c   9.94101716
_cell_angle_alpha   90.00000000
_cell_angle_beta   90.00000000
_cell_angle_gamma   90.00000000
_symmetry_Int_Tables_number   1
_chemical_formula_structural   Sc2O3
_chemical_formula_sum   'Sc16 O24'
_cell_volume   506.46373740
_cell_formula_units_Z   8
loop_
 _symmetry_equiv_pos_site_id
 _symmetry_equiv_pos_as_xyz
  1  'x, y, z'
loop_
 _atom_site_type_symbol
 _atom_site_label
 _atom_site_symmetry_multiplicity
 _atom_site_fract_x
 _atom_site_fract_y
 _atom_site_fract_z
 _atom_site_occupancy
  Sc  Sc0  1  0.18037547  0.16217328  0.87045697  1
  Sc  Sc1  1  0.17676904  0.85332190  0.05824257  1
  Sc  Sc2  1  0.17059715  0.52992904  0.86045961  1
  Sc  Sc3  1  0.18501188  0.84457008  0.64658142  1
  Sc  Sc4  1  0.32323096  0.35332190  0.55824257  1
  Sc  Sc5  1  0.32940285  0.02992904  0.36045961  1
  Sc  Sc6  1  0.31498812  0.34457008  0.14658142  1
  Sc  Sc7  1  0.31962453  0.66217328  0.37045697  1
  Sc  Sc8  1  0.68501188  0.65542992  0.64658142  1
  Sc  Sc9  1  0.67059715  0.97007096  0.86045961  1
  Sc  Sc10  1  0.68037547  0.33782672  0.87045697  1
  Sc  Sc11  1  0.67676904  0.64667810  0.05824257  1
  Sc  Sc12  1  0.82323096  0.14667810  0.55824257  1
  Sc  Sc13  1  0.81498812  0.15542992  0.14658142  1
  Sc  Sc14  1  0.82940285  0.47007096  0.36045961  1
  Sc  Sc15  1  0.81962453  0.83782672  0.37045697  1
  O  O16  1  0.96960134  0.01749871  0.99403389  1
  O  O17  1  0.00858225  0.32472374  0.99046579  1
  O  O18  1  0.03039866  0.98250129  0.49403389  1
  O  O19  1  0.02256526  0.67169023  0.00207168  1
  O  O20  1  0.97743474  0.32830977  0.50207168  1
  O  O21  1  0.99141775  0.67527626  0.49046479  1
  O  O22  1  0.15853913  0.16582194  0.23362023  1
  O  O23  1  0.16561794  0.49320840  0.27124221  1
  O  O24  1  0.16230915  0.83841533  0.26032763  1
  O  O25  1  0.33769085  0.33841533  0.76032763  1
  O  O26  1  0.33438206  0.99320840  0.77124221  1
  O  O27  1  0.34146087  0.66582194  0.73362023  1
  O  O28  1  0.50858225  0.17527626  0.99046579  1
  O  O29  1  0.47743474  0.17169023  0.50207168  1
  O  O30  1  0.52256526  0.82830977  0.00207168  1
  O  O31  1  0.49141775  0.82472374  0.49046479  1
  O  O32  1  0.53039866  0.51749871  0.49403389  1
  O  O33  1  0.46960134  0.48250129  0.99403389  1
  O  O34  1  0.66230915  0.66158467  0.26032763  1
  O  O35  1  0.66561794  0.00679260  0.27124221  1
  O  O36  1  0.65853913  0.33417806  0.23362023  1
  O  O37  1  0.83769085  0.16158467  0.76032763  1
  O  O38  1  0.83438206  0.50679160  0.77124221  1
  O  O39  1  0.84146087  0.83417806  0.73362023  1
