# generated using pymatgen
data_Lu2Cu2O5
_symmetry_space_group_name_H-M   'P 1'
_cell_length_a   3.41841155
_cell_length_b   10.76567924
_cell_length_c   12.36820321
_cell_angle_alpha   90.00000000
_cell_angle_beta   90.00000000
_cell_angle_gamma   90.00000000
_symmetry_Int_Tables_number   1
_chemical_formula_structural   Lu2Cu2O5
_chemical_formula_sum   'Lu8 Cu8 O20'
_cell_volume   455.16870572
_cell_formula_units_Z   4
loop_
 _symmetry_equiv_pos_site_id
 _symmetry_equiv_pos_as_xyz
  1  'x, y, z'
loop_
 _atom_site_type_symbol
 _atom_site_label
 _atom_site_symmetry_multiplicity
 _atom_site_fract_x
 _atom_site_fract_y
 _atom_site_fract_z
 _atom_site_occupancy
  O  O0  1  0.27146121  0.92158425  0.02841393  1
  O  O1  1  0.72853879  0.07841575  0.52841393  1
  O  O2  1  0.22853879  0.42158425  0.02841393  1
  O  O3  1  0.77146121  0.57841575  0.52841393  1
  O  O4  1  0.72371555  0.93013904  0.23470454  1
  O  O5  1  0.27628445  0.06986096  0.73470454  1
  O  O6  1  0.77628445  0.43013904  0.23470454  1
  O  O7  1  0.22371555  0.56986096  0.73470454  1
  O  O8  1  0.17425034  0.62481978  0.33361808  1
  O  O9  1  0.82574966  0.37518022  0.83361808  1
  O  O10  1  0.32574966  0.12481978  0.33361808  1
  O  O11  1  0.67425034  0.87518022  0.83361808  1
  O  O12  1  0.78089667  0.82051776  0.43320627  1
  O  O13  1  0.21910333  0.17948224  0.93320627  1
  O  O14  1  0.71910333  0.32051776  0.43320627  1
  O  O15  1  0.28089667  0.67948224  0.93320627  1
  O  O16  1  0.27650047  0.82810505  0.63920073  1
  O  O17  1  0.72349953  0.17189495  0.13920073  1
  O  O18  1  0.22349953  0.32810505  0.63920073  1
  O  O19  1  0.77650047  0.67189495  0.13920073  1
  Cu  Cu20  1  0.84565542  0.76160483  0.27984222  1
  Cu  Cu21  1  0.15434458  0.23839517  0.77984222  1
  Cu  Cu22  1  0.65434458  0.26160483  0.27984222  1
  Cu  Cu23  1  0.34565542  0.73839517  0.77984222  1
  Cu  Cu24  1  0.84069927  0.48904899  0.38765895  1
  Cu  Cu25  1  0.15930073  0.51095101  0.88765895  1
  Cu  Cu26  1  0.65930073  0.98904899  0.38765895  1
  Cu  Cu27  1  0.34069927  0.01095101  0.88765895  1
  Lu  Lu28  1  0.27626507  0.54222436  0.16952862  1
  Lu  Lu29  1  0.72373493  0.45777564  0.66952862  1
  Lu  Lu30  1  0.22373493  0.04222436  0.16952862  1
  Lu  Lu31  1  0.77626507  0.95777564  0.66952862  1
  Lu  Lu32  1  0.27679741  0.70802170  0.49752665  1
  Lu  Lu33  1  0.72320259  0.29197830  0.99752665  1
  Lu  Lu34  1  0.22320259  0.20802170  0.49752665  1
  Lu  Lu35  1  0.77679741  0.79197830  0.99752665  1
