# generated using pymatgen
data_LiCdPO4
_symmetry_space_group_name_H-M   'P 1'
_cell_length_a   4.86632920
_cell_length_b   6.38626196
_cell_length_c   10.91432549
_cell_angle_alpha   90.00000000
_cell_angle_beta   90.00000000
_cell_angle_gamma   90.00000000
_symmetry_Int_Tables_number   1
_chemical_formula_structural   LiCdPO4
_chemical_formula_sum   'Li4 Cd4 P4 O16'
_cell_volume   339.19162091
_cell_formula_units_Z   4
loop_
 _symmetry_equiv_pos_site_id
 _symmetry_equiv_pos_as_xyz
  1  'x, y, z'
loop_
 _atom_site_type_symbol
 _atom_site_label
 _atom_site_symmetry_multiplicity
 _atom_site_fract_x
 _atom_site_fract_y
 _atom_site_fract_z
 _atom_site_occupancy
  Li  Li0  1  0.01268294  0.00677670  0.49708538  1
  Li  Li1  1  0.98731706  0.50677670  0.50291462  1
  Li  Li2  1  0.51268294  0.50677670  0.00291462  1
  Li  Li3  1  0.48731706  0.00677670  0.99708538  1
  Cd  Cd4  1  0.45613715  0.25191955  0.71601548  1
  Cd  Cd5  1  0.54386285  0.75191955  0.28398452  1
  Cd  Cd6  1  0.04386285  0.25191955  0.21601548  1
  Cd  Cd7  1  0.95613715  0.75191955  0.78398452  1
  P  P8  1  0.10435340  0.74906037  0.08858378  1
  P  P9  1  0.89564660  0.24906037  0.91141622  1
  P  P10  1  0.60435340  0.24906037  0.41141622  1
  P  P11  1  0.39564660  0.74906037  0.58858378  1
  O  O12  1  0.77370252  0.25153708  0.04357272  1
  O  O13  1  0.78872681  0.74597742  0.09232307  1
  O  O14  1  0.22629748  0.75153708  0.95642728  1
  O  O15  1  0.73303854  0.44429003  0.34427612  1
  O  O16  1  0.28872681  0.24597742  0.40767693  1
  O  O17  1  0.23303854  0.94429003  0.15572388  1
  O  O18  1  0.27370252  0.75153708  0.45642728  1
  O  O19  1  0.26696146  0.94429003  0.65572388  1
  O  O20  1  0.76048762  0.05453885  0.84604222  1
  O  O21  1  0.71127319  0.74597742  0.59232307  1
  O  O22  1  0.23951238  0.55453885  0.15395778  1
  O  O23  1  0.72629748  0.25153708  0.54357272  1
  O  O24  1  0.76696146  0.44429003  0.84427612  1
  O  O25  1  0.26048762  0.55453885  0.65395778  1
  O  O26  1  0.21127319  0.24597742  0.90767693  1
  O  O27  1  0.73951238  0.05453885  0.34604222  1
