# generated using pymatgen
data_SiO2
_symmetry_space_group_name_H-M   'P 1'
_cell_length_a   5.18401312
_cell_length_b   11.32424582
_cell_length_c   11.32424635
_cell_angle_alpha   102.74904922
_cell_angle_beta   90.00000000
_cell_angle_gamma   90.00000000
_symmetry_Int_Tables_number   1
_chemical_formula_structural   SiO2
_chemical_formula_sum   'Si12 O24'
_cell_volume   648.40057028
_cell_formula_units_Z   12
loop_
 _symmetry_equiv_pos_site_id
 _symmetry_equiv_pos_as_xyz
  1  'x, y, z'
loop_
 _atom_site_type_symbol
 _atom_site_label
 _atom_site_symmetry_multiplicity
 _atom_site_fract_x
 _atom_site_fract_y
 _atom_site_fract_z
 _atom_site_occupancy
  Si  Si0  1  0.21514002  0.99480672  0.41684861  1
  Si  Si1  1  0.17195836  0.72534447  0.27465553  1
  Si  Si2  1  0.71514002  0.00519328  0.58315139  1
  Si  Si3  1  0.72102066  0.34327877  0.24659277  1
  Si  Si4  1  0.72102066  0.75340723  0.65672123  1
  Si  Si5  1  0.22102066  0.65672123  0.75340723  1
  Si  Si6  1  0.67195836  0.27465553  0.72534447  1
  Si  Si7  1  0.67203851  0.62124299  0.37875701  1
  Si  Si8  1  0.22102066  0.24659277  0.34327877  1
  Si  Si9  1  0.21514002  0.58315139  0.00519328  1
  Si  Si10  1  0.17203851  0.37875701  0.62124299  1
  Si  Si11  1  0.71514002  0.41684861  0.99480672  1
  O  O12  1  0.70715630  0.12907296  0.68702465  1
  O  O13  1  0.99490135  0.48229285  0.00830892  1
  O  O14  1  0.70715630  0.31297535  0.87092704  1
  O  O15  1  0.20753300  0.52426429  0.66154045  1
  O  O16  1  0.38397198  0.31105412  0.68894588  1
  O  O17  1  0.70753300  0.47573571  0.33845955  1
  O  O18  1  0.16876154  0.64706079  0.89223162  1
  O  O19  1  0.66876154  0.35293921  0.10776838  1
  O  O20  1  0.70753300  0.66154045  0.52426429  1
  O  O21  1  0.38344753  0.65733416  0.34266584  1
  O  O22  1  0.49490135  0.51770715  0.99169108  1
  O  O23  1  0.88344753  0.34266584  0.65733416  1
  O  O24  1  0.00477895  0.28498336  0.25494563  1
  O  O25  1  0.20753300  0.33845955  0.47573571  1
  O  O26  1  0.88397198  0.68894588  0.31105412  1
  O  O27  1  0.66876154  0.89223162  0.64706079  1
  O  O28  1  0.49490135  0.00830892  0.48229285  1
  O  O29  1  0.50477895  0.71501664  0.74505437  1
  O  O30  1  0.16876154  0.10776838  0.35293921  1
  O  O31  1  0.20715630  0.87092704  0.31297535  1
  O  O32  1  0.00477895  0.74505437  0.71501664  1
  O  O33  1  0.99490135  0.99169108  0.51770715  1
  O  O34  1  0.50477895  0.25494563  0.28498336  1
  O  O35  1  0.20715630  0.68702465  0.12907296  1
