# generated using pymatgen
data_DyTa7O19
_symmetry_space_group_name_H-M   'P 1'
_cell_length_a   6.26952786
_cell_length_b   6.26952785
_cell_length_c   20.07634181
_cell_angle_alpha   90.00000000
_cell_angle_beta   90.00000000
_cell_angle_gamma   120.00000003
_symmetry_Int_Tables_number   1
_chemical_formula_structural   DyTa7O19
_chemical_formula_sum   'Dy2 Ta14 O38'
_cell_volume   683.41559611
_cell_formula_units_Z   2
loop_
 _symmetry_equiv_pos_site_id
 _symmetry_equiv_pos_as_xyz
  1  'x, y, z'
loop_
 _atom_site_type_symbol
 _atom_site_label
 _atom_site_symmetry_multiplicity
 _atom_site_fract_x
 _atom_site_fract_y
 _atom_site_fract_z
 _atom_site_occupancy
  O  O0  1  0.33333333  0.66666667  0.63134409  1
  O  O1  1  0.33333333  0.66666667  0.86865591  1
  O  O2  1  0.33333333  0.66666667  0.36865591  1
  O  O3  1  0.33333333  0.66666667  0.13134409  1
  O  O4  1  0.66666667  0.33333333  0.66580389  1
  O  O5  1  0.66666667  0.33333333  0.83419611  1
  O  O6  1  0.66666667  0.33333333  0.33419611  1
  O  O7  1  0.66666667  0.33333333  0.16580389  1
  O  O8  1  0.75478357  0.00022073  0.65295860  1
  O  O9  1  0.99977927  0.24521643  0.34704140  1
  O  O10  1  0.99977927  0.75456285  0.65295860  1
  O  O11  1  0.24543715  0.24521643  0.65295860  1
  O  O12  1  0.99977927  0.75456285  0.84704140  1
  O  O13  1  0.24543715  0.24521643  0.84704140  1
  O  O14  1  0.75478357  0.00022073  0.84704140  1
  O  O15  1  0.24543715  0.00022073  0.15295860  1
  O  O16  1  0.37658328  0.41789503  0.25000000  1
  O  O17  1  0.04131175  0.62341672  0.25000000  1
  O  O18  1  0.58210497  0.95868825  0.25000000  1
  O  O19  1  0.58210497  0.62341672  0.75000000  1
  O  O20  1  0.04131175  0.41789503  0.75000000  1
  O  O21  1  0.37658328  0.95868825  0.75000000  1
  O  O22  1  0.42998528  0.38605573  0.05568713  1
  O  O23  1  0.95607045  0.57001472  0.44431287  1
  O  O24  1  0.61394427  0.04392955  0.44431287  1
  O  O25  1  0.61394427  0.04392955  0.05568713  1
  O  O26  1  0.95607045  0.57001472  0.05568713  1
  O  O27  1  0.61394427  0.57001472  0.94431287  1
  O  O28  1  0.95607045  0.38605573  0.94431287  1
  O  O29  1  0.42998528  0.04392955  0.94431287  1
  O  O30  1  0.95607045  0.38605573  0.55568713  1
  O  O31  1  0.42998528  0.04392955  0.55568713  1
  O  O32  1  0.42998528  0.38605573  0.44431287  1
  O  O33  1  0.61394427  0.57001472  0.55568713  1
  O  O34  1  0.99977927  0.24521643  0.15295860  1
  O  O35  1  0.24543715  0.00022073  0.34704140  1
  O  O36  1  0.75478357  0.75456285  0.34704140  1
  O  O37  1  0.75478357  0.75456285  0.15295860  1
  Dy  Dy38  1  0.33333333  0.66666667  0.50000000  1
  Dy  Dy39  1  0.33333333  0.66666667  0.00000000  1
  Ta  Ta40  1  0.64074700  0.64052802  0.65549437  1
  Ta  Ta41  1  0.35947198  0.35925300  0.34450563  1
  Ta  Ta42  1  0.35947198  0.00021898  0.65549437  1
  Ta  Ta43  1  0.99978102  0.35925300  0.65549437  1
  Ta  Ta44  1  0.35947198  0.00021898  0.84450563  1
  Ta  Ta45  1  0.99978102  0.35925300  0.84450563  1
  Ta  Ta46  1  0.64074700  0.64052802  0.84450563  1
  Ta  Ta47  1  0.99978102  0.64052802  0.15549437  1
  Ta  Ta48  1  0.64074700  0.00021898  0.15549437  1
  Ta  Ta49  1  0.64074700  0.00021898  0.34450563  1
  Ta  Ta50  1  0.99978102  0.64052802  0.34450563  1
  Ta  Ta51  1  0.35947198  0.35925300  0.15549437  1
  Ta  Ta52  1  0.66666667  0.33333333  0.50000000  1
  Ta  Ta53  1  0.66666667  0.33333333  0.00000000  1
