# generated using pymatgen
data_Na3Sr3GaAs4
_symmetry_space_group_name_H-M   'P 1'
_cell_length_a   9.69215558
_cell_length_b   9.69215558
_cell_length_c   7.60142214
_cell_angle_alpha   90.00000000
_cell_angle_beta   90.00000000
_cell_angle_gamma   120.00000000
_symmetry_Int_Tables_number   1
_chemical_formula_structural   Na3Sr3GaAs4
_chemical_formula_sum   'Na6 Sr6 Ga2 As8'
_cell_volume   618.39538087
_cell_formula_units_Z   2
loop_
 _symmetry_equiv_pos_site_id
 _symmetry_equiv_pos_as_xyz
  1  'x, y, z'
loop_
 _atom_site_type_symbol
 _atom_site_label
 _atom_site_symmetry_multiplicity
 _atom_site_fract_x
 _atom_site_fract_y
 _atom_site_fract_z
 _atom_site_occupancy
  Na  Na0  1  0.13644591  0.86355409  0.16973087  1
  Na  Na1  1  0.27289182  0.13644591  0.66973087  1
  Na  Na2  1  0.86355409  0.72710818  0.66973087  1
  Na  Na3  1  0.72710818  0.86355409  0.16973087  1
  Na  Na4  1  0.86355409  0.13644591  0.66973087  1
  Na  Na5  1  0.13644591  0.27289182  0.16973087  1
  Ga  Ga6  1  0.66666667  0.33333333  0.37332161  1
  Ga  Ga7  1  0.33333333  0.66666667  0.87332161  1
  As  As8  1  0.81112984  0.18887016  0.27806585  1
  As  As9  1  0.18887016  0.37774032  0.77806585  1
  As  As10  1  0.81112984  0.62225968  0.27806585  1
  As  As11  1  0.66666667  0.33333333  0.71784708  1
  As  As12  1  0.62225968  0.81112984  0.77806585  1
  As  As13  1  0.33333333  0.66666667  0.21784708  1
  As  As14  1  0.18887016  0.81112984  0.77806585  1
  As  As15  1  0.37774032  0.18887016  0.27806585  1
  Sr  Sr16  1  0.95577654  0.47788827  0.99884705  1
  Sr  Sr17  1  0.52211173  0.04422346  0.99884705  1
  Sr  Sr18  1  0.47788827  0.95577654  0.49884705  1
  Sr  Sr19  1  0.04422346  0.52211173  0.49884705  1
  Sr  Sr20  1  0.52211173  0.47788827  0.99884705  1
  Sr  Sr21  1  0.47788827  0.52211173  0.49884705  1
