# generated using pymatgen
data_HCl
_symmetry_space_group_name_H-M   'P 1'
_cell_length_a   4.38379946
_cell_length_b   5.36819248
_cell_length_c   4.38379946
_cell_angle_alpha   90.00000000
_cell_angle_beta   74.61508758
_cell_angle_gamma   90.00000000
_symmetry_Int_Tables_number   1
_chemical_formula_structural   HCl
_chemical_formula_sum   'H2 Cl2'
_cell_volume   99.46743869
_cell_formula_units_Z   2
loop_
 _symmetry_equiv_pos_site_id
 _symmetry_equiv_pos_as_xyz
  1  'x, y, z'
loop_
 _atom_site_type_symbol
 _atom_site_label
 _atom_site_symmetry_multiplicity
 _atom_site_fract_x
 _atom_site_fract_y
 _atom_site_fract_z
 _atom_site_occupancy
  H  H0  1  0.93416247  0.67920535  0.06583753  1
  H  H1  1  0.06583753  0.17920535  0.93416247  1
  Cl  Cl2  1  0.77924844  0.49079465  0.22075156  1
  Cl  Cl3  1  0.22075156  0.99079465  0.77924844  1
