# generated using pymatgen
data_WO3
_symmetry_space_group_name_H-M   'P 1'
_cell_length_a   5.42219089
_cell_length_b   5.44330331
_cell_length_c   7.75458083
_cell_angle_alpha   90.28979494
_cell_angle_beta   90.00000000
_cell_angle_gamma   90.00000000
_symmetry_Int_Tables_number   1
_chemical_formula_structural   WO3
_chemical_formula_sum   'W4 O12'
_cell_volume   228.87065376
_cell_formula_units_Z   4
loop_
 _symmetry_equiv_pos_site_id
 _symmetry_equiv_pos_as_xyz
  1  'x, y, z'
loop_
 _atom_site_type_symbol
 _atom_site_label
 _atom_site_symmetry_multiplicity
 _atom_site_fract_x
 _atom_site_fract_y
 _atom_site_fract_z
 _atom_site_occupancy
  O  O0  1  0.03239929  0.01116093  0.04289815  1
  O  O1  1  0.96760071  0.01116093  0.54289815  1
  O  O2  1  0.73638310  0.24498668  0.27284041  1
  O  O3  1  0.26361690  0.24498668  0.77284041  1
  O  O4  1  0.46751510  0.51091400  0.03571052  1
  O  O5  1  0.53248490  0.51091400  0.53571052  1
  O  O6  1  0.73399575  0.77473496  0.80592736  1
  O  O7  1  0.26600425  0.77473496  0.30592736  1
  O  O8  1  0.23397590  0.74744647  0.77275566  1
  O  O9  1  0.76602410  0.74744647  0.27275566  1
  O  O10  1  0.76356957  0.27722970  0.80591590  1
  O  O11  1  0.23643043  0.27722970  0.30591590  1
  W  W12  1  0.48948267  0.51061855  0.77197744  1
  W  W13  1  0.51051733  0.51061855  0.27197744  1
  W  W14  1  0.98949178  0.01200869  0.80647456  1
  W  W15  1  0.01050822  0.01200869  0.30647456  1
