# generated using pymatgen
data_La5TlTe8
_symmetry_space_group_name_H-M   'P 1'
_cell_length_a   8.45140613
_cell_length_b   8.45140622
_cell_length_c   8.45140633
_cell_angle_alpha   109.31680644
_cell_angle_beta   109.78049636
_cell_angle_gamma   109.31680765
_symmetry_Int_Tables_number   1
_chemical_formula_structural   La5TlTe8
_chemical_formula_sum   'La5 Tl1 Te8'
_cell_volume   464.68164292
_cell_formula_units_Z   1
loop_
 _symmetry_equiv_pos_site_id
 _symmetry_equiv_pos_as_xyz
  1  'x, y, z'
loop_
 _atom_site_type_symbol
 _atom_site_label
 _atom_site_symmetry_multiplicity
 _atom_site_fract_x
 _atom_site_fract_y
 _atom_site_fract_z
 _atom_site_occupancy
  La  La0  1  0.24462571  0.62698850  0.37576436  1
  La  La1  1  0.37500000  0.25000000  0.62500000  1
  La  La2  1  0.62423564  0.36886135  0.25122413  1
  La  La3  1  0.74877587  0.87301150  0.11763721  1
  La  La4  1  0.88236279  0.13113865  0.75537429  1
  Te  Te5  1  0.99536243  0.85113270  0.49092574  1
  Te  Te6  1  0.15557833  0.16284733  0.16141107  1
  Te  Te7  1  0.35577027  0.49556331  0.00463757  1
  Te  Te8  1  0.63979305  0.64886730  0.64422973  1
  Te  Te9  1  0.50726900  0.00583274  0.84442167  1
  Te  Te10  1  0.50907426  0.00443669  0.36020695  1
  Te  Te11  1  0.83858893  0.49416726  0.00143625  1
  Te  Te12  1  0.99856375  0.33715267  0.49273100  1
  Tl  Tl13  1  0.12500000  0.75000000  0.87500000  1
