# generated using pymatgen
data_Rb2GeF6
_symmetry_space_group_name_H-M   'P 1'
_cell_length_a   5.96427724
_cell_length_b   5.96427724
_cell_length_c   4.94482166
_cell_angle_alpha   90.00000000
_cell_angle_beta   90.00000000
_cell_angle_gamma   119.99999998
_symmetry_Int_Tables_number   1
_chemical_formula_structural   Rb2GeF6
_chemical_formula_sum   'Rb2 Ge1 F6'
_cell_volume   152.33402265
_cell_formula_units_Z   1
loop_
 _symmetry_equiv_pos_site_id
 _symmetry_equiv_pos_as_xyz
  1  'x, y, z'
loop_
 _atom_site_type_symbol
 _atom_site_label
 _atom_site_symmetry_multiplicity
 _atom_site_fract_x
 _atom_site_fract_y
 _atom_site_fract_z
 _atom_site_occupancy
  F  F0  1  0.85274956  0.14725044  0.79048586  1
  F  F1  1  0.85274956  0.70549913  0.79048586  1
  F  F2  1  0.29450087  0.14725044  0.79048586  1
  F  F3  1  0.14725044  0.85274956  0.20951414  1
  F  F4  1  0.14725044  0.29450087  0.20951414  1
  F  F5  1  0.70549913  0.85274956  0.20951414  1
  Ge  Ge6  1  0.00000000  0.00000000  0.00000000  1
  Rb  Rb7  1  0.33333333  0.66666667  0.70070221  1
  Rb  Rb8  1  0.66666667  0.33333333  0.29929779  1
