# generated using pymatgen
data_VCuO3
_symmetry_space_group_name_H-M   'P 1'
_cell_length_a   5.01025463
_cell_length_b   5.91448289
_cell_length_c   5.61830189
_cell_angle_alpha   62.38078673
_cell_angle_beta   69.76698675
_cell_angle_gamma   33.00841402
_symmetry_Int_Tables_number   1
_chemical_formula_structural   VCuO3
_chemical_formula_sum   'V1 Cu1 O3'
_cell_volume   80.04270060
_cell_formula_units_Z   1
loop_
 _symmetry_equiv_pos_site_id
 _symmetry_equiv_pos_as_xyz
  1  'x, y, z'
loop_
 _atom_site_type_symbol
 _atom_site_label
 _atom_site_symmetry_multiplicity
 _atom_site_fract_x
 _atom_site_fract_y
 _atom_site_fract_z
 _atom_site_occupancy
  V  V0  1  0.04749750  0.60794272  0.13666567  1
  Cu  Cu1  1  0.10776638  0.93529374  0.44152586  1
  O  O2  1  0.38340745  0.55347012  0.24610306  1
  O  O3  1  0.99219576  0.79607703  0.79782813  1
  O  O4  1  0.42413290  0.03791640  0.25577727  1
