# generated using pymatgen
data_K2Be2PbF8
_symmetry_space_group_name_H-M   'P 1'
_cell_length_a   7.62914758
_cell_length_b   7.62914757
_cell_length_c   7.62914758
_cell_angle_alpha   42.48375661
_cell_angle_beta   42.48375662
_cell_angle_gamma   42.48375660
_symmetry_Int_Tables_number   1
_chemical_formula_structural   K2Be2PbF8
_chemical_formula_sum   'K2 Be2 Pb1 F8'
_cell_volume   183.39649972
_cell_formula_units_Z   1
loop_
 _symmetry_equiv_pos_site_id
 _symmetry_equiv_pos_as_xyz
  1  'x, y, z'
loop_
 _atom_site_type_symbol
 _atom_site_label
 _atom_site_symmetry_multiplicity
 _atom_site_fract_x
 _atom_site_fract_y
 _atom_site_fract_z
 _atom_site_occupancy
  Be  Be0  1  0.59820673  0.59820673  0.59820673  1
  Be  Be1  1  0.40179327  0.40179327  0.40179327  1
  F  F2  1  0.26247237  0.72828571  0.72828571  1
  F  F3  1  0.72828571  0.26247237  0.72828571  1
  F  F4  1  0.72828571  0.72828571  0.26247237  1
  F  F5  1  0.32744400  0.32744400  0.32744400  1
  F  F6  1  0.67255600  0.67255600  0.67255600  1
  F  F7  1  0.27171429  0.73752763  0.27171429  1
  F  F8  1  0.27171429  0.27171429  0.73752763  1
  F  F9  1  0.73752763  0.27171429  0.27171429  1
  K  K10  1  0.20322861  0.20322861  0.20322861  1
  K  K11  1  0.79677139  0.79677139  0.79677139  1
  Pb  Pb12  1  0.00000000  0.00000000  0.00000000  1
