# generated using pymatgen
data_TiZn(BiO3)2
_symmetry_space_group_name_H-M   'P 1'
_cell_length_a   4.99544504
_cell_length_b   5.30076226
_cell_length_c   5.30075888
_cell_angle_alpha   90.00000000
_cell_angle_beta   90.00000000
_cell_angle_gamma   90.00013690
_symmetry_Int_Tables_number   1
_chemical_formula_structural   TiZn(BiO3)2
_chemical_formula_sum   'Ti1 Zn1 Bi2 O6'
_cell_volume   140.36232755
_cell_formula_units_Z   1
loop_
 _symmetry_equiv_pos_site_id
 _symmetry_equiv_pos_as_xyz
  1  'x, y, z'
loop_
 _atom_site_type_symbol
 _atom_site_label
 _atom_site_symmetry_multiplicity
 _atom_site_fract_x
 _atom_site_fract_y
 _atom_site_fract_z
 _atom_site_occupancy
  Ti  Ti0  1  0.58593283  0.50000116  0.50000000  1
  O  O1  1  0.72716979  0.74285312  0.74285310  1
  O  O2  1  0.72716979  0.74285312  0.25714690  1
  O  O3  1  0.17080213  0.00000049  0.00000000  1
  Zn  Zn4  1  0.55291329  1.00000043  0.00000000  1
  Bi  Bi5  1  1.00014679  -0.00000045  0.50000000  1
  O  O6  1  0.22837688  0.50000060  0.50000000  1
  O  O7  1  0.72717100  0.25714647  0.25714700  1
  O  O8  1  0.72717100  0.25714647  0.74285300  1
  Bi  Bi9  1  1.00014650  0.49999860  0.00000000  1
