# generated using pymatgen
data_Ce3Zr5O16
_symmetry_space_group_name_H-M   'P 1'
_cell_length_a   5.35908111
_cell_length_b   7.49507597
_cell_length_c   7.49512736
_cell_angle_alpha   90.52096480
_cell_angle_beta   90.00000000
_cell_angle_gamma   90.00000000
_symmetry_Int_Tables_number   1
_chemical_formula_structural   Ce3Zr5O16
_chemical_formula_sum   'Ce3 Zr5 O16'
_cell_volume   301.04223744
_cell_formula_units_Z   1
loop_
 _symmetry_equiv_pos_site_id
 _symmetry_equiv_pos_as_xyz
  1  'x, y, z'
loop_
 _atom_site_type_symbol
 _atom_site_label
 _atom_site_symmetry_multiplicity
 _atom_site_fract_x
 _atom_site_fract_y
 _atom_site_fract_z
 _atom_site_occupancy
  Ce  Ce0  1  0.99999486  0.00689139  0.99310770  1
  Ce  Ce1  1  0.50000700  0.75000000  0.25000000  1
  Ce  Ce2  1  0.99999486  0.49310861  0.50689230  1
  Zr  Zr3  1  0.50007874  0.25000000  0.25000000  1
  Zr  Zr4  1  0.00001218  0.99718204  0.49717554  1
  Zr  Zr5  1  0.50000142  0.25000000  0.75000000  1
  Zr  Zr6  1  0.00001218  0.50281796  0.00282446  1
  Zr  Zr7  1  0.49990961  0.75000000  0.75000000  1
  O  O8  1  0.30798807  0.23131858  0.00971709  1
  O  O9  1  0.22203339  0.99427569  0.26940763  1
  O  O10  1  0.72351107  0.02026980  0.23902878  1
  O  O11  1  0.79020228  0.27141686  0.97441335  1
  O  O12  1  0.30798707  0.26868142  0.49028291  1
  O  O13  1  0.20979416  0.02557820  0.72859175  1
  O  O14  1  0.69199667  0.99028100  0.76869989  1
  O  O15  1  0.79020228  0.22858314  0.52558665  1
  O  O16  1  0.27649255  0.76095969  0.97973609  1
  O  O17  1  0.22203339  0.50572431  0.23059237  1
  O  O18  1  0.72351107  0.47973020  0.26097122  1
  O  O19  1  0.77797588  0.73058231  0.00573013  1
  O  O20  1  0.27649255  0.73904031  0.52026391  1
  O  O21  1  0.20979416  0.47442180  0.77140825  1
  O  O22  1  0.69199667  0.50971900  0.73130011  1
  O  O23  1  0.77797588  0.76941769  0.49426987  1
