# generated using pymatgen
data_LiAs
_symmetry_space_group_name_H-M   'P 1'
_cell_length_a   5.28096512
_cell_length_b   5.82542719
_cell_length_c   9.54951270
_cell_angle_alpha   94.63881494
_cell_angle_beta   90.00000000
_cell_angle_gamma   90.00000000
_symmetry_Int_Tables_number   1
_chemical_formula_structural   LiAs
_chemical_formula_sum   'Li8 As8'
_cell_volume   292.81771221
_cell_formula_units_Z   8
loop_
 _symmetry_equiv_pos_site_id
 _symmetry_equiv_pos_as_xyz
  1  'x, y, z'
loop_
 _atom_site_type_symbol
 _atom_site_label
 _atom_site_symmetry_multiplicity
 _atom_site_fract_x
 _atom_site_fract_y
 _atom_site_fract_z
 _atom_site_occupancy
  Li  Li0  1  0.83278932  0.32277193  0.55180030  1
  Li  Li1  1  0.33278932  0.17722807  0.94819970  1
  Li  Li2  1  0.16721068  0.67722807  0.44819970  1
  Li  Li3  1  0.66721068  0.82277193  0.05180030  1
  Li  Li4  1  0.08493201  0.59267872  0.82866122  1
  Li  Li5  1  0.58493201  0.90732128  0.67133878  1
  Li  Li6  1  0.91506799  0.40732128  0.17133878  1
  Li  Li7  1  0.41506799  0.09267872  0.32866122  1
  As  As8  1  0.33414196  0.31286988  0.59896569  1
  As  As9  1  0.83414196  0.18713012  0.90103431  1
  As  As10  1  0.66585804  0.68713012  0.40103431  1
  As  As11  1  0.16585804  0.81286988  0.09896569  1
  As  As12  1  0.57769092  0.49962007  0.80130565  1
  As  As13  1  0.07769092  0.00037993  0.69869435  1
  As  As14  1  0.42230908  0.50037993  0.19869435  1
  As  As15  1  0.92230908  0.99962007  0.30130565  1
