# generated using pymatgen
data_Sb2Pb2O7
_symmetry_space_group_name_H-M   'P 1'
_cell_length_a   7.64577351
_cell_length_b   7.64577351
_cell_length_c   7.64577351
_cell_angle_alpha   92.19965624
_cell_angle_beta   117.10800111
_cell_angle_gamma   120.39436733
_symmetry_Int_Tables_number   1
_chemical_formula_structural   Sb2Pb2O7
_chemical_formula_sum   'Sb4 Pb4 O14'
_cell_volume   321.43855830
_cell_formula_units_Z   2
loop_
 _symmetry_equiv_pos_site_id
 _symmetry_equiv_pos_as_xyz
  1  'x, y, z'
loop_
 _atom_site_type_symbol
 _atom_site_label
 _atom_site_symmetry_multiplicity
 _atom_site_fract_x
 _atom_site_fract_y
 _atom_site_fract_z
 _atom_site_occupancy
  Sb  Sb0  1  0.24179969  0.73924651  0.00255419  1
  Sb  Sb1  1  0.73669232  0.23924651  0.99744581  1
  Sb  Sb2  1  0.24103530  0.74103530  0.50000000  1
  Sb  Sb3  1  0.24103530  0.24103530  -0.00000000  1
  Pb  Pb4  1  0.21115387  0.25346619  0.45768668  1
  Pb  Pb5  1  0.79577951  0.75346619  0.54231332  1
  Pb  Pb6  1  0.72761297  0.22761297  0.50000000  1
  Pb  Pb7  1  0.72761297  0.72761297  -0.00000000  1
  O  O8  1  0.11055112  0.66150359  0.69197428  1
  O  O9  1  0.96952931  0.41857685  0.30802572  1
  O  O10  1  0.11055112  0.91857685  0.94904754  1
  O  O11  1  0.96952931  0.16150359  0.05095246  1
  O  O12  1  0.44930769  0.64524729  0.62478850  1
  O  O13  1  0.02045779  0.82451919  0.37521150  1
  O  O14  1  0.44930769  0.32451919  0.30406140  1
  O  O15  1  0.02045779  0.14524729  0.69593860  1
  O  O16  1  0.51801460  0.05873244  0.69137131  1
  O  O17  1  0.36736113  0.82664329  0.30862869  1
  O  O18  1  0.51801460  0.32664329  0.95928316  1
  O  O19  1  0.36736113  0.55873244  0.04071684  1
  O  O20  1  0.89665378  0.49011738  0.90653740  1
  O  O21  1  0.58357998  0.99011738  0.09346260  1
