# generated using pymatgen
data_Yb2Cu4As3
_symmetry_space_group_name_H-M   'P 1'
_cell_length_a   13.21826306
_cell_length_b   13.21826307
_cell_length_c   4.07713855
_cell_angle_alpha   90.00000000
_cell_angle_beta   90.00000000
_cell_angle_gamma   119.99999999
_symmetry_Int_Tables_number   1
_chemical_formula_structural   Yb2Cu4As3
_chemical_formula_sum   'Yb8 Cu16 As12'
_cell_volume   616.92857033
_cell_formula_units_Z   4
loop_
 _symmetry_equiv_pos_site_id
 _symmetry_equiv_pos_as_xyz
  1  'x, y, z'
loop_
 _atom_site_type_symbol
 _atom_site_label
 _atom_site_symmetry_multiplicity
 _atom_site_fract_x
 _atom_site_fract_y
 _atom_site_fract_z
 _atom_site_occupancy
  Cu  Cu0  1  0.11819132  0.48156542  0.50000000  1
  Cu  Cu1  1  0.48156542  0.11819132  0.50000000  1
  Cu  Cu2  1  0.88180868  0.36337411  0.50000000  1
  Cu  Cu3  1  0.63662589  0.51843458  0.50000000  1
  Cu  Cu4  1  0.51843458  0.63662589  0.50000000  1
  Cu  Cu5  1  0.36337411  0.88180868  0.50000000  1
  Cu  Cu6  1  0.37520769  0.18988160  0.00000000  1
  Cu  Cu7  1  0.81011840  0.18532609  0.00000000  1
  Cu  Cu8  1  0.00000000  0.00000000  0.00000000  1
  Cu  Cu9  1  0.72479730  0.00000000  0.50000000  1
  Cu  Cu10  1  0.27520270  0.27520270  0.50000000  1
  Cu  Cu11  1  0.00000000  0.72479730  0.50000000  1
  Cu  Cu12  1  0.18988160  0.37520769  0.00000000  1
  Cu  Cu13  1  0.18532609  0.81011840  0.00000000  1
  Cu  Cu14  1  0.62479231  0.81467391  0.00000000  1
  Cu  Cu15  1  0.81467391  0.62479231  0.00000000  1
  As  As16  1  0.64197709  0.64197709  0.00000000  1
  As  As17  1  0.00000000  0.35802291  0.00000000  1
  As  As18  1  0.48159980  0.30604163  0.50000000  1
  As  As19  1  0.30604163  0.48159980  0.50000000  1
  As  As20  1  0.17555816  0.69395837  0.50000000  1
  As  As21  1  0.51840020  0.82444184  0.50000000  1
  As  As22  1  0.82444184  0.51840020  0.50000000  1
  As  As23  1  0.69395837  0.17555816  0.50000000  1
  As  As24  1  0.82282061  0.00000000  0.00000000  1
  As  As25  1  0.17717939  0.17717939  0.00000000  1
  As  As26  1  0.00000000  0.82282061  0.00000000  1
  As  As27  1  0.35802291  0.00000000  0.00000000  1
  Yb  Yb28  1  0.00000000  0.57084551  0.00000000  1
  Yb  Yb29  1  0.42915449  0.42915449  0.00000000  1
  Yb  Yb30  1  0.57084551  0.00000000  0.00000000  1
  Yb  Yb31  1  0.00000000  0.18940006  0.50000000  1
  Yb  Yb32  1  0.81059994  0.81059994  0.50000000  1
  Yb  Yb33  1  0.18940006  0.00000000  0.50000000  1
  Yb  Yb34  1  0.66666667  0.33333333  0.00000000  1
  Yb  Yb35  1  0.33333333  0.66666667  0.00000000  1
