# generated using pymatgen
data_La2TeO6
_symmetry_space_group_name_H-M   'P 1'
_cell_length_a   5.55507312
_cell_length_b   9.54754994
_cell_length_c   10.48410032
_cell_angle_alpha   90.00000000
_cell_angle_beta   90.00000000
_cell_angle_gamma   90.00000000
_symmetry_Int_Tables_number   1
_chemical_formula_structural   La2TeO6
_chemical_formula_sum   'La8 Te4 O24'
_cell_volume   556.04877265
_cell_formula_units_Z   4
loop_
 _symmetry_equiv_pos_site_id
 _symmetry_equiv_pos_as_xyz
  1  'x, y, z'
loop_
 _atom_site_type_symbol
 _atom_site_label
 _atom_site_symmetry_multiplicity
 _atom_site_fract_x
 _atom_site_fract_y
 _atom_site_fract_z
 _atom_site_occupancy
  O  O0  1  0.30066713  0.13744845  0.17517407  1
  O  O1  1  0.80066713  0.36255155  0.82482593  1
  O  O2  1  0.69933287  0.63744845  0.32482593  1
  O  O3  1  0.19933287  0.86255155  0.67517407  1
  O  O4  1  0.71914410  0.11221036  0.56421683  1
  O  O5  1  0.21914410  0.38778964  0.43578317  1
  O  O6  1  0.28085590  0.61221036  0.93578317  1
  O  O7  1  0.78085590  0.88778964  0.06421683  1
  O  O8  1  0.67788232  0.63530901  0.74673746  1
  O  O9  1  0.17788232  0.86469099  0.25326254  1
  O  O10  1  0.32211768  0.13530901  0.75326254  1
  O  O11  1  0.82211768  0.36469099  0.24673746  1
  O  O12  1  0.66856443  0.94768165  0.78226947  1
  O  O13  1  0.16856443  0.55231835  0.21773053  1
  O  O14  1  0.33143557  0.44768165  0.71773053  1
  O  O15  1  0.83143557  0.05231835  0.28226947  1
  O  O16  1  0.25505383  0.08411593  0.50806801  1
  O  O17  1  0.75505383  0.41588407  0.49193199  1
  O  O18  1  0.74494617  0.58411593  0.99193199  1
  O  O19  1  0.24494617  0.91588407  0.00806801  1
  O  O20  1  0.07374483  0.64855594  0.47679600  1
  O  O21  1  0.57374483  0.85144406  0.52320400  1
  O  O22  1  0.92625517  0.14855594  0.02320400  1
  O  O23  1  0.42625517  0.35144406  0.97679600  1
  Te  Te24  1  0.46058365  0.99597787  0.64079649  1
  Te  Te25  1  0.96058365  0.50402213  0.35920351  1
  Te  Te26  1  0.53941635  0.49597787  0.85920351  1
  Te  Te27  1  0.03941635  0.00402213  0.14079649  1
  La  La28  1  0.52436277  0.10433362  0.95571423  1
  La  La29  1  0.02436277  0.39566638  0.04428577  1
  La  La30  1  0.47563723  0.60433362  0.54428577  1
  La  La31  1  0.97563723  0.89566638  0.45571423  1
  La  La32  1  0.52957550  0.21737227  0.35900153  1
  La  La33  1  0.02957550  0.28262773  0.64099847  1
  La  La34  1  0.47042450  0.71737227  0.14099847  1
  La  La35  1  0.97042450  0.78262773  0.85900153  1
