# generated using pymatgen
data_LiTlPHO3
_symmetry_space_group_name_H-M   'P 1'
_cell_length_a   7.66533336
_cell_length_b   7.66533336
_cell_length_c   5.45029085
_cell_angle_alpha   89.50503422
_cell_angle_beta   90.49496578
_cell_angle_gamma   140.22890631
_symmetry_Int_Tables_number   1
_chemical_formula_structural   LiTlPHO3
_chemical_formula_sum   'Li2 Tl2 P2 H2 O6'
_cell_volume   204.85885470
_cell_formula_units_Z   2
loop_
 _symmetry_equiv_pos_site_id
 _symmetry_equiv_pos_as_xyz
  1  'x, y, z'
loop_
 _atom_site_type_symbol
 _atom_site_label
 _atom_site_symmetry_multiplicity
 _atom_site_fract_x
 _atom_site_fract_y
 _atom_site_fract_z
 _atom_site_occupancy
  Li  Li0  1  0.29852862  0.79856665  0.81408601  1
  Li  Li1  1  0.79856665  0.29852862  0.18591399  1
  Tl  Tl2  1  0.10891792  0.91809847  0.25164813  1
  Tl  Tl3  1  0.91809847  0.10891792  0.74835187  1
  P  P4  1  0.41754390  0.69769918  0.31175901  1
  P  P5  1  0.69769918  0.41754390  0.68824099  1
  H  H6  1  0.42188002  0.52468584  0.23350198  1
  H  H7  1  0.52468584  0.42188002  0.76649802  1
  O  O8  1  0.20677510  0.63132615  0.14702734  1
  O  O9  1  0.33849058  0.63354700  0.58487471  1
  O  O10  1  0.71172667  0.99121189  0.27370811  1
  O  O11  1  0.99121189  0.71172667  0.72629089  1
  O  O12  1  0.63354700  0.33849058  0.41512529  1
  O  O13  1  0.63132615  0.20677510  0.85297266  1
