# generated using pymatgen
data_Na5MnO4
_symmetry_space_group_name_H-M   'P 1'
_cell_length_a   5.88600208
_cell_length_b   6.07252073
_cell_length_c   7.88226794
_cell_angle_alpha   90.00000000
_cell_angle_beta   90.00000000
_cell_angle_gamma   90.00000000
_symmetry_Int_Tables_number   1
_chemical_formula_structural   Na5MnO4
_chemical_formula_sum   'Na10 Mn2 O8'
_cell_volume   281.73487551
_cell_formula_units_Z   2
loop_
 _symmetry_equiv_pos_site_id
 _symmetry_equiv_pos_as_xyz
  1  'x, y, z'
loop_
 _atom_site_type_symbol
 _atom_site_label
 _atom_site_symmetry_multiplicity
 _atom_site_fract_x
 _atom_site_fract_y
 _atom_site_fract_z
 _atom_site_occupancy
  O  O0  1  0.59475592  0.25808003  0.27489722  1
  O  O1  1  0.61498534  0.87319220  0.50000000  1
  O  O2  1  0.11498534  0.12680780  0.00000000  1
  O  O3  1  0.18860139  0.28468235  0.50000000  1
  O  O4  1  0.68860139  0.71531765  0.00000000  1
  O  O5  1  0.09475592  0.74191997  0.22510278  1
  O  O6  1  0.09475592  0.74191997  0.77489722  1
  O  O7  1  0.59475592  0.25808003  0.72510278  1
  Na  Na8  1  0.74719293  0.60706999  0.30117032  1
  Na  Na9  1  0.23861833  0.67761722  0.50000000  1
  Na  Na10  1  0.43568081  0.92857972  0.82113398  1
  Na  Na11  1  0.24719293  0.39293001  0.80117032  1
  Na  Na12  1  0.74719293  0.60706999  0.69882968  1
  Na  Na13  1  0.43568081  0.92857972  0.17886602  1
  Na  Na14  1  0.93568081  0.07142028  0.32113398  1
  Na  Na15  1  0.93568081  0.07142028  0.67886602  1
  Na  Na16  1  0.73861833  0.32238278  0.00000000  1
  Na  Na17  1  0.24719293  0.39293001  0.19882968  1
  Mn  Mn18  1  0.49513562  0.17308180  0.50000000  1
  Mn  Mn19  1  0.99513562  0.82691820  0.00000000  1
