# generated using pymatgen
data_KPrSiSe4
_symmetry_space_group_name_H-M   'P 1'
_cell_length_a   6.87010548
_cell_length_b   7.08219411
_cell_length_c   9.17922766
_cell_angle_alpha   90.00000000
_cell_angle_beta   107.58057452
_cell_angle_gamma   90.00000000
_symmetry_Int_Tables_number   1
_chemical_formula_structural   KPrSiSe4
_chemical_formula_sum   'K2 Pr2 Si2 Se8'
_cell_volume   425.75899730
_cell_formula_units_Z   2
loop_
 _symmetry_equiv_pos_site_id
 _symmetry_equiv_pos_as_xyz
  1  'x, y, z'
loop_
 _atom_site_type_symbol
 _atom_site_label
 _atom_site_symmetry_multiplicity
 _atom_site_fract_x
 _atom_site_fract_y
 _atom_site_fract_z
 _atom_site_occupancy
  Si  Si0  1  0.28168357  0.22700047  0.67892724  1
  Si  Si1  1  0.71831643  0.72700047  0.32107276  1
  K  K2  1  0.23763355  0.70425305  0.93492271  1
  K  K3  1  0.76236645  0.20425305  0.06507729  1
  Se  Se4  1  0.47548885  0.96141978  0.27017273  1
  Se  Se5  1  0.91459051  0.72944562  0.16233952  1
  Se  Se6  1  0.08540949  0.22944562  0.83766048  1
  Se  Se7  1  0.52081699  0.45856483  0.28699003  1
  Se  Se8  1  0.47918301  0.95856483  0.71300997  1
  Se  Se9  1  0.91119093  0.77763204  0.56955528  1
  Se  Se10  1  0.08880907  0.27763204  0.43044472  1
  Se  Se11  1  0.52451115  0.46141978  0.72982727  1
  Pr  Pr12  1  0.27127515  0.69369421  0.44964430  1
  Pr  Pr13  1  0.72872485  0.19369421  0.55035570  1
