# generated using pymatgen
data_Li2VO3
_symmetry_space_group_name_H-M   'P 1'
_cell_length_a   6.45989885
_cell_length_b   5.00016422
_cell_length_c   9.78371514
_cell_angle_alpha   86.84348733
_cell_angle_beta   42.48636523
_cell_angle_gamma   51.57872296
_symmetry_Int_Tables_number   1
_chemical_formula_structural   Li2VO3
_chemical_formula_sum   'Li4 V2 O6'
_cell_volume   108.29616013
_cell_formula_units_Z   2
loop_
 _symmetry_equiv_pos_site_id
 _symmetry_equiv_pos_as_xyz
  1  'x, y, z'
loop_
 _atom_site_type_symbol
 _atom_site_label
 _atom_site_symmetry_multiplicity
 _atom_site_fract_x
 _atom_site_fract_y
 _atom_site_fract_z
 _atom_site_occupancy
  Li  Li0  1  0.99798774  0.50218888  0.00095138  1
  Li  Li1  1  0.49915323  0.00103455  0.50005829  1
  Li  Li2  1  0.31367893  0.50786351  0.34158666  1
  Li  Li3  1  0.67868609  0.50004679  0.66123769  1
  V  V4  1  0.14713029  0.01420562  0.17544640  1
  V  V5  1  0.85132724  0.98770338  0.82487056  1
  O  O6  1  0.28281375  0.20778635  0.22322027  1
  O  O7  1  0.71536668  0.79442231  0.77721272  1
  O  O8  1  0.57321107  0.28224733  0.57631809  1
  O  O9  1  0.13113728  0.73183058  0.07143926  1
  O  O10  1  0.42545895  0.71940790  0.42398542  1
  O  O11  1  0.86769675  0.26975080  0.92880426  1
