# generated using pymatgen
data_Ca2PI
_symmetry_space_group_name_H-M   'P 1'
_cell_length_a   17.99032051
_cell_length_b   7.95166982
_cell_length_c   9.17165734
_cell_angle_alpha   152.33692851
_cell_angle_beta   166.74536666
_cell_angle_gamma   24.26156073
_symmetry_Int_Tables_number   1
_chemical_formula_structural   Ca2PI
_chemical_formula_sum   'Ca2 P1 I1'
_cell_volume   123.58847294
_cell_formula_units_Z   1
loop_
 _symmetry_equiv_pos_site_id
 _symmetry_equiv_pos_as_xyz
  1  'x, y, z'
loop_
 _atom_site_type_symbol
 _atom_site_label
 _atom_site_symmetry_multiplicity
 _atom_site_fract_x
 _atom_site_fract_y
 _atom_site_fract_z
 _atom_site_occupancy
  Ca  Ca0  1  0.36223643  0.60922844  0.01590232  1
  Ca  Ca1  1  0.64758244  0.35038788  0.96092302  1
  P  P2  1  0.00543945  0.47641536  -0.01272705  1
  I  I3  1  0.98474168  0.06396833  0.03590171  1
