# generated using pymatgen
data_Sm3NbO7
_symmetry_space_group_name_H-M   'P 1'
_cell_length_a   6.62967150
_cell_length_b   6.62967150
_cell_length_c   7.67723208
_cell_angle_alpha   90.00000000
_cell_angle_beta   90.00000000
_cell_angle_gamma   109.24813120
_symmetry_Int_Tables_number   1
_chemical_formula_structural   Sm3NbO7
_chemical_formula_sum   'Sm6 Nb2 O14'
_cell_volume   318.57125207
_cell_formula_units_Z   2
loop_
 _symmetry_equiv_pos_site_id
 _symmetry_equiv_pos_as_xyz
  1  'x, y, z'
loop_
 _atom_site_type_symbol
 _atom_site_label
 _atom_site_symmetry_multiplicity
 _atom_site_fract_x
 _atom_site_fract_y
 _atom_site_fract_z
 _atom_site_occupancy
  Sm  Sm0  1  0.00057252  0.46378769  0.49514982  1
  Sm  Sm1  1  0.53621231  0.99942748  0.50485018  1
  Sm  Sm2  1  0.47351182  0.47351182  0.75000000  1
  Sm  Sm3  1  0.52648818  0.52648818  0.25000000  1
  Sm  Sm4  1  0.99942748  0.53621231  0.99514982  1
  Sm  Sm5  1  0.46378769  0.00057252  0.00485018  1
  Nb  Nb6  1  0.00331689  0.00331689  0.25000000  1
  Nb  Nb7  1  0.99668311  0.99668311  0.75000000  1
  O  O8  1  0.06478176  0.93521824  0.00000000  1
  O  O9  1  0.36360210  0.63639790  0.00000000  1
  O  O10  1  0.05961270  0.31109668  0.21312863  1
  O  O11  1  0.68890332  0.94038730  0.78687137  1
  O  O12  1  0.37043903  0.62956097  0.50000000  1
  O  O13  1  0.67646201  0.92091109  0.22360495  1
  O  O14  1  0.07908891  0.32353799  0.77639505  1
  O  O15  1  0.32353799  0.07908891  0.72360495  1
  O  O16  1  0.92091109  0.67646201  0.27639505  1
  O  O17  1  0.62956097  0.37043903  0.00000000  1
  O  O18  1  0.94038730  0.68890332  0.71312863  1
  O  O19  1  0.31109668  0.05961270  0.28687137  1
  O  O20  1  0.63639790  0.36360210  0.50000000  1
  O  O21  1  0.93521824  0.06478176  0.50000000  1
