# generated using pymatgen
data_CsSbCl6
_symmetry_space_group_name_H-M   'P 1'
_cell_length_a   6.77533463
_cell_length_b   7.23697473
_cell_length_c   12.93378351
_cell_angle_alpha   101.11610707
_cell_angle_beta   90.00000000
_cell_angle_gamma   117.91138728
_symmetry_Int_Tables_number   1
_chemical_formula_structural   CsSbCl6
_chemical_formula_sum   'Cs2 Sb2 Cl12'
_cell_volume   546.90780363
_cell_formula_units_Z   2
loop_
 _symmetry_equiv_pos_site_id
 _symmetry_equiv_pos_as_xyz
  1  'x, y, z'
loop_
 _atom_site_type_symbol
 _atom_site_label
 _atom_site_symmetry_multiplicity
 _atom_site_fract_x
 _atom_site_fract_y
 _atom_site_fract_z
 _atom_site_occupancy
  Cs  Cs0  1  0.12894495  0.50083941  0.00060317  1
  Cs  Cs1  1  0.37189447  0.50083941  0.50060317  1
  Sb  Sb2  1  0.24850926  0.99905611  0.75127046  1
  Sb  Sb3  1  0.75054685  0.99905611  0.25127046  1
  Cl  Cl4  1  0.53846863  0.33377962  0.85640336  1
  Cl  Cl5  1  0.79531100  0.33377962  0.35640336  1
  Cl  Cl6  1  0.62117074  0.06800958  0.09614864  1
  Cl  Cl7  1  0.95978487  0.66343258  0.64620746  1
  Cl  Cl8  1  0.44683884  0.06800958  0.59614864  1
  Cl  Cl9  1  0.88046156  0.92829236  0.40570895  1
  Cl  Cl10  1  0.13235649  0.18377360  0.20949431  1
  Cl  Cl11  1  0.05141711  0.18377360  0.70949431  1
  Cl  Cl12  1  0.36720305  0.81581674  0.29126366  1
  Cl  Cl13  1  0.04783080  0.92829236  0.90570895  1
  Cl  Cl14  1  0.44861369  0.81581674  0.79126366  1
  Cl  Cl15  1  0.70364771  0.66343258  0.14620746  1
