# generated using pymatgen
data_Sb2S2O9
_symmetry_space_group_name_H-M   'P 1'
_cell_length_a   6.68327148
_cell_length_b   6.68327148
_cell_length_c   17.38567605
_cell_angle_alpha   90.00000000
_cell_angle_beta   90.00000000
_cell_angle_gamma   90.00000000
_symmetry_Int_Tables_number   1
_chemical_formula_structural   Sb2S2O9
_chemical_formula_sum   'Sb8 S8 O36'
_cell_volume   776.55065232
_cell_formula_units_Z   4
loop_
 _symmetry_equiv_pos_site_id
 _symmetry_equiv_pos_as_xyz
  1  'x, y, z'
loop_
 _atom_site_type_symbol
 _atom_site_label
 _atom_site_symmetry_multiplicity
 _atom_site_fract_x
 _atom_site_fract_y
 _atom_site_fract_z
 _atom_site_occupancy
  Sb  Sb0  1  0.84825488  0.97849813  0.34302625  1
  Sb  Sb1  1  0.97849813  0.84825488  0.65697375  1
  Sb  Sb2  1  0.15174512  0.02150187  0.84302625  1
  Sb  Sb3  1  0.02150187  0.15174512  0.15697375  1
  Sb  Sb4  1  0.52150187  0.34825488  0.59302625  1
  Sb  Sb5  1  0.65174512  0.47849813  0.90697375  1
  Sb  Sb6  1  0.47849813  0.65174512  0.09302625  1
  Sb  Sb7  1  0.34825488  0.52150187  0.40697375  1
  S  S8  1  0.35477805  0.03660766  0.30417396  1
  S  S9  1  0.03660766  0.35477805  0.69582604  1
  S  S10  1  0.46339234  0.85477805  0.55417396  1
  S  S11  1  0.14522195  0.53660766  0.94582604  1
  S  S12  1  0.53660766  0.14522195  0.05417396  1
  S  S13  1  0.96339234  0.64522195  0.19582604  1
  S  S14  1  0.85477805  0.46339234  0.44582604  1
  S  S15  1  0.64522195  0.96339234  0.80417396  1
  O  O16  1  0.29799642  0.95313388  0.59671428  1
  O  O17  1  0.70813596  0.89137786  0.72570876  1
  O  O18  1  0.32563511  0.46153854  0.90217476  1
  O  O19  1  0.50172213  0.13044067  0.79581297  1
  O  O20  1  0.36955933  0.00172213  0.04581297  1
  O  O21  1  0.35958376  0.35958376  0.50000000  1
  O  O22  1  0.10862214  0.29186404  0.77429124  1
  O  O23  1  0.45313388  0.20200358  0.34671428  1
  O  O24  1  0.04686612  0.70200358  0.90328572  1
  O  O25  1  0.85958376  0.14041624  0.25000000  1
  O  O26  1  0.95313388  0.29799642  0.40328572  1
  O  O27  1  0.82563511  0.03846146  0.84782524  1
  O  O28  1  0.17436489  0.96153854  0.34782524  1
  O  O29  1  0.03846146  0.82563511  0.15217476  1
  O  O30  1  0.49827787  0.86955933  0.29581297  1
  O  O31  1  0.63044067  0.99827787  0.54581297  1
  O  O32  1  0.79799642  0.54686612  0.15328572  1
  O  O33  1  0.70200358  0.04686612  0.09671428  1
  O  O34  1  0.79186404  0.39137786  0.52429124  1
  O  O35  1  0.20200358  0.45313388  0.65328572  1
  O  O36  1  0.13044067  0.50172213  0.20418703  1
  O  O37  1  0.00172213  0.36955933  0.95418703  1
  O  O38  1  0.64041624  0.64041624  0.00000000  1
  O  O39  1  0.46153854  0.32563511  0.09782524  1
  O  O40  1  0.89137786  0.70813596  0.27429124  1
  O  O41  1  0.53846146  0.67436489  0.59782524  1
  O  O42  1  0.86955933  0.49827787  0.70418703  1
  O  O43  1  0.39137786  0.79186404  0.47570876  1
  O  O44  1  0.29186404  0.10862214  0.22570876  1
  O  O45  1  0.20813596  0.60862214  0.02429124  1
  O  O46  1  0.99827787  0.63044067  0.45418703  1
  O  O47  1  0.67436489  0.53846146  0.40217476  1
  O  O48  1  0.96153854  0.17436489  0.65217476  1
  O  O49  1  0.54686612  0.79799642  0.84671428  1
  O  O50  1  0.14041624  0.85958376  0.75000000  1
  O  O51  1  0.60862214  0.20813596  0.97570876  1
