# generated using pymatgen
data_LiMn3(OF3)2
_symmetry_space_group_name_H-M   'P 1'
_cell_length_a   5.40223477
_cell_length_b   6.14276737
_cell_length_c   5.28645836
_cell_angle_alpha   88.06944525
_cell_angle_beta   78.96384517
_cell_angle_gamma   69.17333988
_symmetry_Int_Tables_number   1
_chemical_formula_structural   LiMn3(OF3)2
_chemical_formula_sum   'Li1 Mn3 O2 F6'
_cell_volume   160.82157315
_cell_formula_units_Z   1
loop_
 _symmetry_equiv_pos_site_id
 _symmetry_equiv_pos_as_xyz
  1  'x, y, z'
loop_
 _atom_site_type_symbol
 _atom_site_label
 _atom_site_symmetry_multiplicity
 _atom_site_fract_x
 _atom_site_fract_y
 _atom_site_fract_z
 _atom_site_occupancy
  Li  Li0  1  0.97023218  0.27117098  0.53262445  1
  Mn  Mn1  1  0.49753639  0.37146822  0.24900515  1
  Mn  Mn2  1  0.49943116  0.13333816  0.74953473  1
  Mn  Mn3  1  0.51773859  0.87041630  0.23627815  1
  O  O4  1  0.32871170  0.17046867  0.11575647  1
  O  O5  1  0.70086042  0.10526857  0.40961150  1
  F  F6  1  0.22282141  0.40444549  0.61542206  1
  F  F7  1  0.28895095  0.66797466  0.14647970  1
  F  F8  1  0.29329807  0.95530146  0.57799961  1
  F  F9  1  0.71269917  0.55263813  0.34590577  1
  F  F10  1  0.72868444  0.29488246  0.85678233  1
  F  F11  1  0.72496053  0.82133591  0.89531007  1
