# generated using pymatgen
data_LiSbO3
_symmetry_space_group_name_H-M   'P 1'
_cell_length_a   6.29193124
_cell_length_b   5.40598208
_cell_length_c   10.33034533
_cell_angle_alpha   83.58120428
_cell_angle_beta   156.38891874
_cell_angle_gamma   106.78922542
_symmetry_Int_Tables_number   1
_chemical_formula_structural   LiSbO3
_chemical_formula_sum   'Li2 Sb2 O6'
_cell_volume   123.56562924
_cell_formula_units_Z   2
loop_
 _symmetry_equiv_pos_site_id
 _symmetry_equiv_pos_as_xyz
  1  'x, y, z'
loop_
 _atom_site_type_symbol
 _atom_site_label
 _atom_site_symmetry_multiplicity
 _atom_site_fract_x
 _atom_site_fract_y
 _atom_site_fract_z
 _atom_site_occupancy
  Li  Li0  1  0.29353886  0.80736909  0.64511858  1
  Li  Li1  1  0.67221260  0.19265747  0.33352925  1
  Sb  Sb2  1  0.16778374  0.17852163  0.33250906  1
  Sb  Sb3  1  0.81309716  0.82194741  0.65514680  1
  O  O4  1  0.30176163  0.50018784  0.50766996  1
  O  O5  1  0.67937229  0.50025025  0.48009420  1
  O  O6  1  0.61517704  0.90189528  0.17436654  1
  O  O7  1  0.17024528  0.90252202  0.21579332  1
  O  O8  1  0.36586120  0.09846485  0.81354069  1
  O  O9  1  0.81098320  0.09804215  0.77224959  1
