# generated using pymatgen
data_K3AsSe3
_symmetry_space_group_name_H-M   'P 1'
_cell_length_a   9.90500676
_cell_length_b   9.90500676
_cell_length_c   9.90500676
_cell_angle_alpha   90.00000000
_cell_angle_beta   90.00000000
_cell_angle_gamma   90.00000000
_symmetry_Int_Tables_number   1
_chemical_formula_structural   K3AsSe3
_chemical_formula_sum   'K12 As4 Se12'
_cell_volume   971.77188228
_cell_formula_units_Z   4
loop_
 _symmetry_equiv_pos_site_id
 _symmetry_equiv_pos_as_xyz
  1  'x, y, z'
loop_
 _atom_site_type_symbol
 _atom_site_label
 _atom_site_symmetry_multiplicity
 _atom_site_fract_x
 _atom_site_fract_y
 _atom_site_fract_z
 _atom_site_occupancy
  K  K0  1  0.81628259  0.18371741  0.68371741  1
  K  K1  1  0.68371741  0.81628259  0.18371741  1
  K  K2  1  0.18371741  0.68371741  0.81628259  1
  K  K3  1  0.31628259  0.31628259  0.31628259  1
  K  K4  1  0.18746850  0.31253150  0.68746850  1
  K  K5  1  0.31253150  0.68746850  0.18746850  1
  K  K6  1  0.68746850  0.18746850  0.31253150  1
  K  K7  1  0.81253150  0.81253150  0.81253150  1
  K  K8  1  0.42016431  0.07983569  0.92016431  1
  K  K9  1  0.07983569  0.92016431  0.42016431  1
  K  K10  1  0.92016431  0.42016431  0.07983569  1
  K  K11  1  0.57983569  0.57983569  0.57983569  1
  As  As12  1  0.02216683  0.02216683  0.02216683  1
  As  As13  1  0.47783317  0.97783317  0.52216683  1
  As  As14  1  0.97783317  0.52216683  0.47783317  1
  As  As15  1  0.52216683  0.47783317  0.97783317  1
  Se  Se16  1  0.28883560  0.40150910  0.99527296  1
  Se  Se17  1  0.78883560  0.09849090  0.00472704  1
  Se  Se18  1  0.71116440  0.90150910  0.50472704  1
  Se  Se19  1  0.09849090  0.00472704  0.78883560  1
  Se  Se20  1  0.50472704  0.71116440  0.90150910  1
  Se  Se21  1  0.00472704  0.78883560  0.09849090  1
  Se  Se22  1  0.40150910  0.99527296  0.28883560  1
  Se  Se23  1  0.99527296  0.28883560  0.40150910  1
  Se  Se24  1  0.90150910  0.50472704  0.71116440  1
  Se  Se25  1  0.59849090  0.49527296  0.21116440  1
  Se  Se26  1  0.49527296  0.21116440  0.59849090  1
  Se  Se27  1  0.21116440  0.59849090  0.49527296  1
