# generated using pymatgen
data_Sm5CuSe8
_symmetry_space_group_name_H-M   'P 1'
_cell_length_a   7.63009410
_cell_length_b   7.63009372
_cell_length_c   7.63009307
_cell_angle_alpha   110.26834211
_cell_angle_beta   110.26834765
_cell_angle_gamma   107.88847242
_symmetry_Int_Tables_number   1
_chemical_formula_structural   Sm5CuSe8
_chemical_formula_sum   'Sm5 Cu1 Se8'
_cell_volume   341.75897097
_cell_formula_units_Z   1
loop_
 _symmetry_equiv_pos_site_id
 _symmetry_equiv_pos_as_xyz
  1  'x, y, z'
loop_
 _atom_site_type_symbol
 _atom_site_label
 _atom_site_symmetry_multiplicity
 _atom_site_fract_x
 _atom_site_fract_y
 _atom_site_fract_z
 _atom_site_occupancy
  Cu  Cu0  1  0.87500000  0.12500000  0.75000000  1
  Se  Se1  1  0.52330214  0.01352709  0.37883267  1
  Se  Se2  1  0.13469442  0.14446947  0.12116733  1
  Se  Se3  1  0.37446526  0.51746966  0.00856923  1
  Se  Se4  1  0.63410397  0.62553474  0.64300440  1
  Se  Se5  1  0.48253034  0.99109957  0.85699560  1
  Se  Se6  1  0.98647291  0.86530558  0.50977505  1
  Se  Se7  1  0.85553053  0.47669786  0.99022495  1
  Se  Se8  1  0.00890043  0.36589603  0.49143077  1
  Sm  Sm9  1  0.11397207  0.74644800  0.87223176  1
  Sm  Sm10  1  0.25355200  0.62578376  0.36752407  1
  Sm  Sm11  1  0.37421624  0.24174031  0.62776824  1
  Sm  Sm12  1  0.62500000  0.37500000  0.25000000  1
  Sm  Sm13  1  0.75825969  0.88602793  0.13247593  1
