# generated using pymatgen
data_LiFeP2O7
_symmetry_space_group_name_H-M   'P 1'
_cell_length_a   4.90289053
_cell_length_b   7.03305278
_cell_length_c   8.23655179
_cell_angle_alpha   90.00000000
_cell_angle_beta   90.00000000
_cell_angle_gamma   108.84998331
_symmetry_Int_Tables_number   1
_chemical_formula_structural   LiFeP2O7
_chemical_formula_sum   'Li2 Fe2 P4 O14'
_cell_volume   268.78278238
_cell_formula_units_Z   2
loop_
 _symmetry_equiv_pos_site_id
 _symmetry_equiv_pos_as_xyz
  1  'x, y, z'
loop_
 _atom_site_type_symbol
 _atom_site_label
 _atom_site_symmetry_multiplicity
 _atom_site_fract_x
 _atom_site_fract_y
 _atom_site_fract_z
 _atom_site_occupancy
  Li  Li0  1  0.17699484  0.66584883  0.86146190  1
  Li  Li1  1  0.82300516  0.33415117  0.36146190  1
  O  O2  1  0.40182633  0.24516547  0.65465975  1
  O  O3  1  0.94845441  0.13897660  0.82959436  1
  O  O4  1  0.05154559  0.86102340  0.32959436  1
  O  O5  1  0.13946992  0.88172897  0.69804830  1
  O  O6  1  0.18564505  0.48270286  0.04077079  1
  O  O7  1  0.24602747  0.51248604  0.34704767  1
  O  O8  1  0.40258000  0.60529721  0.68135799  1
  O  O9  1  0.81435495  0.51729714  0.54077079  1
  O  O10  1  0.59817367  0.75483453  0.15465975  1
  O  O11  1  0.59755726  0.91577048  0.43570311  1
  O  O12  1  0.40244274  0.08422952  0.93570311  1
  O  O13  1  0.59742000  0.39470279  0.18135799  1
  O  O14  1  0.75397253  0.48751396  0.84704767  1
  O  O15  1  0.86053008  0.11827103  0.19804830  1
  P  P16  1  0.21479549  0.08382219  0.78681980  1
  P  P17  1  0.78520451  0.91617781  0.28681980  1
  P  P18  1  0.39899113  0.52361160  0.18266084  1
  P  P19  1  0.60100887  0.47638840  0.68266084  1
  Fe  Fe20  1  0.78339544  0.26637288  0.00203549  1
  Fe  Fe21  1  0.21660456  0.73362712  0.50203549  1
