# generated using pymatgen
data_AsH6NO4
_symmetry_space_group_name_H-M   'P 1'
_cell_length_a   8.08648058
_cell_length_b   7.73056157
_cell_length_c   8.65775746
_cell_angle_alpha   90.00000000
_cell_angle_beta   90.00000000
_cell_angle_gamma   90.00000000
_symmetry_Int_Tables_number   1
_chemical_formula_structural   AsH6NO4
_chemical_formula_sum   'As4 H24 N4 O16'
_cell_volume   541.22270385
_cell_formula_units_Z   4
loop_
 _symmetry_equiv_pos_site_id
 _symmetry_equiv_pos_as_xyz
  1  'x, y, z'
loop_
 _atom_site_type_symbol
 _atom_site_label
 _atom_site_symmetry_multiplicity
 _atom_site_fract_x
 _atom_site_fract_y
 _atom_site_fract_z
 _atom_site_occupancy
  As  As0  1  0.53419555  0.03996125  0.50465103  1
  As  As1  1  0.03419555  0.46003875  0.49534897  1
  As  As2  1  0.46580445  0.53996125  0.99534897  1
  As  As3  1  0.96580445  0.96003875  0.00465103  1
  H  H4  1  0.88997618  0.04293802  0.48244379  1
  H  H5  1  0.38997618  0.45706198  0.51755621  1
  H  H6  1  0.11002382  0.54293802  0.01755621  1
  H  H7  1  0.61002382  0.95706198  0.98244379  1
  H  H8  1  0.03283478  0.99711901  0.33912971  1
  H  H9  1  0.53283478  0.50288099  0.66087029  1
  H  H10  1  0.96716522  0.49711901  0.16087029  1
  H  H11  1  0.46716522  0.00288099  0.83912971  1
  H  H12  1  0.09264265  0.08600710  0.50957379  1
  H  H13  1  0.59264265  0.41399290  0.49042621  1
  H  H14  1  0.90735735  0.58600710  0.99042621  1
  H  H15  1  0.40735735  0.91399290  0.00957379  1
  H  H16  1  0.03159599  0.87762176  0.50521584  1
  H  H17  1  0.53159599  0.62237824  0.49478416  1
  H  H18  1  0.96840401  0.37762176  0.99478416  1
  H  H19  1  0.46840401  0.12237824  0.00521584  1
  H  H20  1  0.32198548  0.18964084  0.38621934  1
  H  H21  1  0.82198548  0.31035916  0.61378066  1
  H  H22  1  0.67801452  0.68964084  0.11378066  1
  H  H23  1  0.17801452  0.81035916  0.88621934  1
  H  H24  1  0.57502157  0.81948466  0.31768897  1
  H  H25  1  0.07502157  0.68051534  0.68231103  1
  H  H26  1  0.42497843  0.31948466  0.18231103  1
  H  H27  1  0.92497843  0.18051534  0.81768897  1
  N  N28  1  0.01094549  -0.00011328  0.46035044  1
  N  N29  1  0.51094549  0.50011328  0.53964956  1
  N  N30  1  0.98905451  0.49988672  0.03964956  1
  N  N31  1  0.48905451  0.00011328  0.96035044  1
  O  O32  1  0.41084015  0.00075183  0.65459893  1
  O  O33  1  0.91084015  0.49924817  0.34540107  1
  O  O34  1  0.58915985  0.50075183  0.84540107  1
  O  O35  1  0.08915985  0.99924817  0.15459893  1
  O  O36  1  0.42114337  0.12580140  0.34440643  1
  O  O37  1  0.92114337  0.37419860  0.65559357  1
  O  O38  1  0.57885663  0.62580140  0.15559357  1
  O  O39  1  0.07885663  0.87419860  0.84440643  1
  O  O40  1  0.70707374  0.16084364  0.52820116  1
  O  O41  1  0.20707374  0.33915636  0.47179884  1
  O  O42  1  0.29292626  0.66084364  0.97179884  1
  O  O43  1  0.79292626  0.83915636  0.02820116  1
  O  O44  1  0.60590141  0.83828464  0.42653174  1
  O  O45  1  0.10590141  0.66171536  0.57346826  1
  O  O46  1  0.39409859  0.33828464  0.07346826  1
  O  O47  1  0.89409859  0.16171536  0.92653174  1
