# generated using pymatgen
data_KNO3
_symmetry_space_group_name_H-M   'P 1'
_cell_length_a   4.62593370
_cell_length_b   9.26902843
_cell_length_c   7.40534222
_cell_angle_alpha   36.95901143
_cell_angle_beta   69.73155407
_cell_angle_gamma   73.82931280
_symmetry_Int_Tables_number   1
_chemical_formula_structural   KNO3
_chemical_formula_sum   'K2 N2 O6'
_cell_volume   179.08822734
_cell_formula_units_Z   2
loop_
 _symmetry_equiv_pos_site_id
 _symmetry_equiv_pos_as_xyz
  1  'x, y, z'
loop_
 _atom_site_type_symbol
 _atom_site_label
 _atom_site_symmetry_multiplicity
 _atom_site_fract_x
 _atom_site_fract_y
 _atom_site_fract_z
 _atom_site_occupancy
  K  K0  1  0.99559905  0.99796594  0.98381685  1
  K  K1  1  0.97658021  0.50203635  0.98808251  1
  N  N2  1  0.43363764  0.50081339  0.43317867  1
  N  N3  1  0.47957354  0.99911690  0.48003062  1
  O  O4  1  0.24931451  0.10864407  0.48453057  1
  O  O5  1  0.16568244  0.50125111  0.56168345  1
  O  O6  1  0.70696722  0.11634936  0.25139142  1
  O  O7  1  0.56504802  0.30386147  0.56482384  1
  O  O8  1  0.56455390  0.69831939  0.17104511  1
  O  O9  1  0.48404347  0.77164201  0.70241695  1
