# generated using pymatgen
data_Li4Mn(TeO4)3
_symmetry_space_group_name_H-M   'P 1'
_cell_length_a   5.19466499
_cell_length_b   5.02964836
_cell_length_c   8.71366101
_cell_angle_alpha   90.00000000
_cell_angle_beta   90.00000000
_cell_angle_gamma   92.60484924
_symmetry_Int_Tables_number   1
_chemical_formula_structural   Li4Mn(TeO4)3
_chemical_formula_sum   'Li4 Mn1 Te3 O12'
_cell_volume   227.42952893
_cell_formula_units_Z   1
loop_
 _symmetry_equiv_pos_site_id
 _symmetry_equiv_pos_as_xyz
  1  'x, y, z'
loop_
 _atom_site_type_symbol
 _atom_site_label
 _atom_site_symmetry_multiplicity
 _atom_site_fract_x
 _atom_site_fract_y
 _atom_site_fract_z
 _atom_site_occupancy
  Li  Li0  1  0.00000000  0.00000000  0.70204591  1
  Li  Li1  1  0.00000000  0.50000000  0.84348794  1
  Li  Li2  1  0.50000000  0.00000000  0.29868399  1
  Li  Li3  1  0.50000000  0.50000000  0.18825035  1
  Mn  Mn4  1  0.00000000  0.00000000  0.10120681  1
  Te  Te5  1  0.50000000  0.50000000  0.60088182  1
  Te  Te6  1  0.00000000  0.50000000  0.39659272  1
  Te  Te7  1  0.50000000  0.00000000  0.92637967  1
  O  O8  1  0.15254809  0.25803206  0.25106409  1
  O  O9  1  0.14591273  0.28702020  0.56412889  1
  O  O10  1  0.18901121  0.20896109  0.94065806  1
  O  O11  1  0.33101613  0.69959885  0.41575181  1
  O  O12  1  0.31548800  0.80719947  0.09441614  1
  O  O13  1  0.32168151  0.77979910  0.77575740  1
  O  O14  1  0.67831849  0.22020090  0.77575740  1
  O  O15  1  0.68451200  0.19280053  0.09441614  1
  O  O16  1  0.66898387  0.30040115  0.41575181  1
  O  O17  1  0.81098879  0.79103791  0.94065806  1
  O  O18  1  0.85408727  0.71297980  0.56412889  1
  O  O19  1  0.84745191  0.74196794  0.25106409  1
