# generated using pymatgen
data_H7SIO10
_symmetry_space_group_name_H-M   'P 1'
_cell_length_a   5.79662526
_cell_length_b   6.02867262
_cell_length_c   12.39203754
_cell_angle_alpha   86.83824744
_cell_angle_beta   86.33139619
_cell_angle_gamma   73.65553135
_symmetry_Int_Tables_number   1
_chemical_formula_structural   H7SIO10
_chemical_formula_sum   'H14 S2 I2 O20'
_cell_volume   414.38707130
_cell_formula_units_Z   2
loop_
 _symmetry_equiv_pos_site_id
 _symmetry_equiv_pos_as_xyz
  1  'x, y, z'
loop_
 _atom_site_type_symbol
 _atom_site_label
 _atom_site_symmetry_multiplicity
 _atom_site_fract_x
 _atom_site_fract_y
 _atom_site_fract_z
 _atom_site_occupancy
  H  H0  1  0.05201185  0.24780809  0.14133560  1
  H  H1  1  0.03963068  0.30292828  0.36672563  1
  H  H2  1  0.13752665  0.18443707  0.64444037  1
  H  H3  1  0.26887911  0.68340034  0.10047244  1
  H  H4  1  0.34878858  0.05451296  0.89180273  1
  H  H5  1  0.50527274  0.31766228  0.35099358  1
  H  H6  1  0.42256709  0.78588847  0.45118732  1
  H  H7  1  0.57743291  0.21411153  0.54881268  1
  H  H8  1  0.49472726  0.68233772  0.64900642  1
  H  H9  1  0.65121142  0.94548704  0.10819727  1
  H  H10  1  0.73112089  0.31659966  0.89952756  1
  H  H11  1  0.86247335  0.81556293  0.35555963  1
  H  H12  1  0.96036932  0.69707172  0.63327437  1
  H  H13  1  0.94798815  0.75219191  0.85866440  1
  S  S14  1  0.36072820  0.43355437  0.74393400  1
  S  S15  1  0.63927180  0.56644563  0.25606600  1
  I  I16  1  0.00000000  0.00000000  0.00000000  1
  I  I17  1  0.00000000  0.00000000  0.50000000  1
  O  O18  1  0.16776998  0.13508772  0.09344832  1
  O  O19  1  0.13138938  0.23349432  0.43290785  1
  O  O20  1  0.00657341  0.87804586  0.36184753  1
  O  O21  1  0.10556046  0.70396217  0.07316003  1
  O  O22  1  0.11738310  0.59662710  0.74601626  1
  O  O23  1  0.38408567  0.26353777  0.65815181  1
  O  O24  1  0.45116585  0.42385835  0.28781252  1
  O  O25  1  0.32360471  0.81085490  0.52201569  1
  O  O26  1  0.43649243  0.32455448  0.84817372  1
  O  O27  1  0.28687039  0.91732668  0.90868466  1
  O  O28  1  0.71312961  0.08267332  0.09131534  1
  O  O29  1  0.56350757  0.67544552  0.15182628  1
  O  O30  1  0.67639529  0.18914510  0.47798431  1
  O  O31  1  0.54883415  0.57614165  0.71218748  1
  O  O32  1  0.61591433  0.73646223  0.34184819  1
  O  O33  1  0.88261690  0.40337290  0.25398374  1
  O  O34  1  0.89443954  0.29603783  0.92683997  1
  O  O35  1  0.99342659  0.12195414  0.63815247  1
  O  O36  1  0.86861062  0.76650568  0.56709215  1
  O  O37  1  0.83223002  0.86491228  0.90655168  1
