# generated using pymatgen
data_Mo3H24C8S13N2
_symmetry_space_group_name_H-M   'P 1'
_cell_length_a   11.16711974
_cell_length_b   11.16711965
_cell_length_c   6.97231266
_cell_angle_alpha   90.00000000
_cell_angle_beta   90.00000000
_cell_angle_gamma   120.00000026
_symmetry_Int_Tables_number   1
_chemical_formula_structural   Mo3H24C8S13N2
_chemical_formula_sum   'Mo3 H24 C8 S13 N2'
_cell_volume   752.99107197
_cell_formula_units_Z   1
loop_
 _symmetry_equiv_pos_site_id
 _symmetry_equiv_pos_as_xyz
  1  'x, y, z'
loop_
 _atom_site_type_symbol
 _atom_site_label
 _atom_site_symmetry_multiplicity
 _atom_site_fract_x
 _atom_site_fract_y
 _atom_site_fract_z
 _atom_site_occupancy
  Mo  Mo0  1  1.00000000  0.14214275  0.01516157  1
  Mo  Mo1  1  0.85785725  0.85785725  0.01516157  1
  Mo  Mo2  1  0.14214275  0.00000000  0.01516157  1
  H  H3  1  0.44952739  0.24626665  0.48735671  1
  H  H4  1  0.20326074  0.75373335  0.48735671  1
  H  H5  1  0.54807234  0.43238600  0.47840399  1
  H  H6  1  0.11568634  0.56761400  0.47840399  1
  H  H7  1  0.20607606  0.65655925  0.69286776  1
  H  H8  1  0.54951681  0.34344075  0.69286776  1
  H  H9  1  0.32771804  0.75741337  0.19770012  1
  H  H10  1  0.24258663  0.57030466  0.19770012  1
  H  H11  1  0.45192766  0.88431366  0.47840399  1
  H  H12  1  0.56761400  0.11568634  0.47840399  1
  H  H13  1  0.45048319  0.79392394  0.69286776  1
  H  H14  1  0.65655925  0.20607606  0.69286776  1
  H  H15  1  0.42969534  0.67228196  0.19770012  1
  H  H16  1  0.55047261  0.79673926  0.48735671  1
  H  H17  1  0.75373335  0.20326074  0.48735671  1
  H  H18  1  0.57030466  0.24258663  0.19770012  1
  H  H19  1  0.67228196  0.42969534  0.19770012  1
  H  H20  1  0.79673926  0.55047261  0.48735671  1
  H  H21  1  0.24626665  0.44952739  0.48735671  1
  H  H22  1  0.79392394  0.45048319  0.69286776  1
  H  H23  1  0.34344075  0.54951681  0.69286776  1
  H  H24  1  0.75741337  0.32771804  0.19770012  1
  H  H25  1  0.88431366  0.45192766  0.47840399  1
  H  H26  1  0.43238600  0.54807234  0.47840399  1
  C  C27  1  0.54338610  0.33880755  0.53569251  1
  C  C28  1  0.20457854  0.66119245  0.53569251  1
  C  C29  1  0.33333300  0.66666700  0.24588345  1
  C  C30  1  0.45661390  0.79542146  0.53569251  1
  C  C31  1  0.66119245  0.20457854  0.53569251  1
  C  C32  1  0.66666700  0.33333300  0.24588345  1
  C  C33  1  0.79542146  0.45661390  0.53569251  1
  C  C34  1  0.33880755  0.54338610  0.53569251  1
  S  S35  1  1.00000000  0.82612671  0.77541615  1
  S  S36  1  0.17387329  0.17387329  0.77541615  1
  S  S37  1  1.00000000  0.74213252  0.03389860  1
  S  S38  1  0.25786748  0.25786748  0.03389860  1
  S  S39  1  0.00000000  0.36284181  0.95144102  1
  S  S40  1  0.63715819  0.63715819  0.95144102  1
  S  S41  1  0.00000000  0.30923067  0.23534956  1
  S  S42  1  0.69076933  0.69076933  0.23534956  1
  S  S43  1  0.00000000  0.00000000  0.26984132  1
  S  S44  1  0.30923067  0.00000000  0.23534956  1
  S  S45  1  0.36284181  0.00000000  0.95144102  1
  S  S46  1  0.74213252  0.00000000  0.03389860  1
  S  S47  1  0.82612671  0.00000000  0.77541615  1
  N  N48  1  0.33333300  0.66666700  0.46198227  1
  N  N49  1  0.66666700  0.33333300  0.46198227  1
