# generated using pymatgen
data_Ba3As14
_symmetry_space_group_name_H-M   'P 1'
_cell_length_a   6.93790886
_cell_length_b   10.39534436
_cell_length_c   13.94995109
_cell_angle_alpha   90.00000000
_cell_angle_beta   90.00000000
_cell_angle_gamma   90.18213733
_symmetry_Int_Tables_number   1
_chemical_formula_structural   Ba3As14
_chemical_formula_sum   'Ba6 As28'
_cell_volume   1006.09261597
_cell_formula_units_Z   2
loop_
 _symmetry_equiv_pos_site_id
 _symmetry_equiv_pos_as_xyz
  1  'x, y, z'
loop_
 _atom_site_type_symbol
 _atom_site_label
 _atom_site_symmetry_multiplicity
 _atom_site_fract_x
 _atom_site_fract_y
 _atom_site_fract_z
 _atom_site_occupancy
  As  As0  1  0.10161560  0.81436948  0.50019084  1
  As  As1  1  0.39838440  0.68563052  0.00019084  1
  As  As2  1  0.89838440  0.18563052  0.49980916  1
  As  As3  1  0.60161560  0.31436948  0.99980916  1
  As  As4  1  0.89419554  0.85678949  0.35443493  1
  As  As5  1  0.60580446  0.64321051  0.85443493  1
  As  As6  1  0.10580446  0.14321051  0.64556507  1
  As  As7  1  0.39419554  0.35678949  0.14556507  1
  As  As8  1  0.56949669  0.17836084  0.56009854  1
  As  As9  1  0.93050331  0.32163916  0.06009854  1
  As  As10  1  0.43050331  0.82163916  0.43990146  1
  As  As11  1  0.06949669  0.67836084  0.93990146  1
  As  As12  1  0.67878336  0.03092443  0.18592150  1
  As  As13  1  0.82121664  0.46907557  0.68592150  1
  As  As14  1  0.32121664  0.96907557  0.81407850  1
  As  As15  1  0.17878336  0.53092443  0.31407850  1
  As  As16  1  0.44289437  0.12747781  0.08051961  1
  As  As17  1  0.05710563  0.37252219  0.58051961  1
  As  As18  1  0.55710563  0.87252219  0.91948039  1
  As  As19  1  0.94289437  0.62747781  0.41948039  1
  As  As20  1  0.11914346  0.86604330  0.22047448  1
  As  As21  1  0.38085654  0.63395670  0.72047448  1
  As  As22  1  0.88085654  0.13395670  0.77952552  1
  As  As23  1  0.61914346  0.36604330  0.27952552  1
  As  As24  1  0.87543606  0.22366950  0.21940363  1
  As  As25  1  0.62456394  0.27633050  0.71940363  1
  As  As26  1  0.12456394  0.77633050  0.78059637  1
  As  As27  1  0.37543606  0.72366950  0.28059637  1
  Ba  Ba28  1  0.00000000  0.00000000  0.00000000  1
  Ba  Ba29  1  0.50000000  0.50000000  0.50000000  1
  Ba  Ba30  1  0.81338324  0.61649325  0.15801186  1
  Ba  Ba31  1  0.68661676  0.88350675  0.65801186  1
  Ba  Ba32  1  0.18661676  0.38350675  0.84198814  1
  Ba  Ba33  1  0.31338324  0.11649325  0.34198814  1
