# generated using pymatgen
data_MgH8(ClO6)2
_symmetry_space_group_name_H-M   'P 1'
_cell_length_a   6.21126023
_cell_length_b   7.23685178
_cell_length_c   7.23685178
_cell_angle_alpha   66.75697455
_cell_angle_beta   68.06069398
_cell_angle_gamma   68.06069398
_symmetry_Int_Tables_number   1
_chemical_formula_structural   MgH8(ClO6)2
_chemical_formula_sum   'Mg1 H8 Cl2 O12'
_cell_volume   267.30820306
_cell_formula_units_Z   1
loop_
 _symmetry_equiv_pos_site_id
 _symmetry_equiv_pos_as_xyz
  1  'x, y, z'
loop_
 _atom_site_type_symbol
 _atom_site_label
 _atom_site_symmetry_multiplicity
 _atom_site_fract_x
 _atom_site_fract_y
 _atom_site_fract_z
 _atom_site_occupancy
  Mg  Mg0  1  0.00000000  0.00000000  -0.00000000  1
  H  H1  1  0.86376408  0.37915816  0.72260521  1
  H  H2  1  0.86376408  0.72260521  0.37915816  1
  H  H3  1  0.13623592  0.62084184  0.27739479  1
  H  H4  1  0.13623592  0.27739479  0.62084184  1
  H  H5  1  0.75599134  0.76786859  0.96441336  1
  H  H6  1  0.75599134  0.96441336  0.76786859  1
  H  H7  1  0.24400866  0.23213141  0.03558664  1
  H  H8  1  0.24400866  0.03558664  0.23213141  1
  Cl  Cl9  1  0.60248568  0.29908824  0.29908824  1
  Cl  Cl10  1  0.39751432  0.70091176  0.70091176  1
  O  O11  1  0.66618232  0.16552837  0.16552837  1
  O  O12  1  0.33381768  0.83447163  0.83447163  1
  O  O13  1  0.69394594  0.48019463  0.18047110  1
  O  O14  1  0.69394594  0.18047110  0.48019463  1
  O  O15  1  0.30605406  0.51980537  0.81952890  1
  O  O16  1  0.30605406  0.81952890  0.51980537  1
  O  O17  1  0.33583882  0.36488633  0.36488633  1
  O  O18  1  0.66416118  0.63511367  0.63511367  1
  O  O19  1  0.00000000  0.25495358  0.74504642  1
  O  O20  1  0.00000000  0.74504642  0.25495358  1
  O  O21  1  0.79780465  0.90041253  0.90041253  1
  O  O22  1  0.20219535  0.09958747  0.09958747  1
