# generated using pymatgen
data_CsAsF6
_symmetry_space_group_name_H-M   'P 1'
_cell_length_a   5.33309131
_cell_length_b   5.33309131
_cell_length_c   5.33309131
_cell_angle_alpha   96.40015873
_cell_angle_beta   96.40015865
_cell_angle_gamma   96.40015867
_symmetry_Int_Tables_number   1
_chemical_formula_structural   CsAsF6
_chemical_formula_sum   'Cs1 As1 F6'
_cell_volume   148.61470933
_cell_formula_units_Z   1
loop_
 _symmetry_equiv_pos_site_id
 _symmetry_equiv_pos_as_xyz
  1  'x, y, z'
loop_
 _atom_site_type_symbol
 _atom_site_label
 _atom_site_symmetry_multiplicity
 _atom_site_fract_x
 _atom_site_fract_y
 _atom_site_fract_z
 _atom_site_occupancy
  F  F0  1  0.19509419  0.26477928  0.92112519  1
  F  F1  1  0.26477928  0.92112519  0.19509419  1
  F  F2  1  0.07887481  0.80490581  0.73522072  1
  F  F3  1  0.73522072  0.07887481  0.80490581  1
  F  F4  1  0.80490581  0.73522072  0.07887481  1
  F  F5  1  0.92112519  0.19509419  0.26477928  1
  As  As6  1  0.00000000  0.00000000  0.00000000  1
  Cs  Cs7  1  0.50000000  0.50000000  0.50000000  1
