# generated using pymatgen
data_LiVF6
_symmetry_space_group_name_H-M   'P 1'
_cell_length_a   5.40844168
_cell_length_b   5.43610966
_cell_length_c   11.19792386
_cell_angle_alpha   103.48825714
_cell_angle_beta   76.05199906
_cell_angle_gamma   60.15920856
_symmetry_Int_Tables_number   1
_chemical_formula_structural   LiVF6
_chemical_formula_sum   'Li2 V2 F12'
_cell_volume   251.58487968
_cell_formula_units_Z   2
loop_
 _symmetry_equiv_pos_site_id
 _symmetry_equiv_pos_as_xyz
  1  'x, y, z'
loop_
 _atom_site_type_symbol
 _atom_site_label
 _atom_site_symmetry_multiplicity
 _atom_site_fract_x
 _atom_site_fract_y
 _atom_site_fract_z
 _atom_site_occupancy
  Li  Li0  1  0.51542202  0.47282366  0.82567269  1
  Li  Li1  1  0.68627899  0.97245318  0.32570656  1
  V  V2  1  0.52651825  0.44146453  0.14686943  1
  V  V3  1  0.38509063  0.94160256  0.64681885  1
  F  F4  1  0.35049940  0.25695640  0.09929290  1
  F  F5  1  0.42306232  0.03450993  0.49915794  1
  F  F6  1  0.12694942  0.80622235  0.25565306  1
  F  F7  1  0.31112949  0.30660882  0.75564769  1
  F  F8  1  0.51306533  0.34629011  0.29382581  1
  F  F9  1  0.91129895  0.08956103  0.05430084  1
  F  F10  1  0.44429471  0.59000108  0.55452401  1
  F  F11  1  0.34703580  0.84681103  0.79396089  1
  F  F12  1  0.67559989  0.66745420  0.19987268  1
  F  F13  1  0.95686147  0.16784467  0.69993613  1
  F  F14  1  0.54290694  0.53447035  0.99916502  1
  F  F15  1  0.79304340  0.75713709  0.59923049  1
