# generated using pymatgen
data_Cr3Sb(PO4)4
_symmetry_space_group_name_H-M   'P 1'
_cell_length_a   4.88085520
_cell_length_b   10.17720626
_cell_length_c   5.93931812
_cell_angle_alpha   90.00000000
_cell_angle_beta   90.00000000
_cell_angle_gamma   90.22169354
_symmetry_Int_Tables_number   1
_chemical_formula_structural   Cr3Sb(PO4)4
_chemical_formula_sum   'Cr3 Sb1 P4 O16'
_cell_volume   295.02433221
_cell_formula_units_Z   1
loop_
 _symmetry_equiv_pos_site_id
 _symmetry_equiv_pos_as_xyz
  1  'x, y, z'
loop_
 _atom_site_type_symbol
 _atom_site_label
 _atom_site_symmetry_multiplicity
 _atom_site_fract_x
 _atom_site_fract_y
 _atom_site_fract_z
 _atom_site_occupancy
  Cr  Cr0  1  0.46214877  0.22612065  0.75000000  1
  Cr  Cr1  1  0.53697110  0.77884281  0.25000000  1
  Cr  Cr2  1  0.96706232  0.26568391  0.25000000  1
  Sb  Sb3  1  0.03033377  0.72491524  0.75000000  1
  P  P4  1  0.11134140  0.59162178  0.25000000  1
  P  P5  1  0.41161408  0.09443503  0.25000000  1
  P  P6  1  0.57622409  0.92077342  0.75000000  1
  P  P7  1  0.90342015  0.39131139  0.75000000  1
  O  O8  1  0.15263495  0.44428172  0.25000000  1
  O  O9  1  0.27705726  0.66389818  0.05348643  1
  O  O10  1  0.27705726  0.66389818  0.44651357  1
  O  O11  1  0.21429442  0.37929085  0.75000000  1
  O  O12  1  0.26481628  0.90795731  0.75000000  1
  O  O13  1  0.26537917  0.17171654  0.04933439  1
  O  O14  1  0.26537917  0.17171654  0.45066561  1
  O  O15  1  0.33031047  0.94952471  0.25000000  1
  O  O16  1  0.67247692  0.06278750  0.75000000  1
  O  O17  1  0.70865672  0.84393750  0.54457959  1
  O  O18  1  0.70865672  0.84393750  0.95542041  1
  O  O19  1  0.72213938  0.11104357  0.25000000  1
  O  O20  1  0.80989188  0.63026437  0.25000000  1
  O  O21  1  0.76214506  0.31476712  0.54644454  1
  O  O22  1  0.76214506  0.31476712  0.95355546  1
  O  O23  1  0.80784159  0.53250504  0.75000000  1
