# generated using pymatgen
data_H7C3N3O5
_symmetry_space_group_name_H-M   'P 1'
_cell_length_a   7.17913635
_cell_length_b   7.17913635
_cell_length_c   8.90995536
_cell_angle_alpha   67.48390987
_cell_angle_beta   112.51609013
_cell_angle_gamma   123.54876363
_symmetry_Int_Tables_number   1
_chemical_formula_structural   H7C3N3O5
_chemical_formula_sum   'H14 C6 N6 O10'
_cell_volume   344.68280200
_cell_formula_units_Z   2
loop_
 _symmetry_equiv_pos_site_id
 _symmetry_equiv_pos_as_xyz
  1  'x, y, z'
loop_
 _atom_site_type_symbol
 _atom_site_label
 _atom_site_symmetry_multiplicity
 _atom_site_fract_x
 _atom_site_fract_y
 _atom_site_fract_z
 _atom_site_occupancy
  H  H0  1  0.05736833  0.05736833  0.75000000  1
  H  H1  1  0.94263167  0.94263167  0.25000000  1
  H  H2  1  0.40186604  0.65193542  0.50843673  1
  H  H3  1  0.65193542  0.40186604  0.99156327  1
  H  H4  1  0.59813396  0.34806458  0.49156327  1
  H  H5  1  0.34806458  0.59813396  0.00843673  1
  H  H6  1  0.38467082  0.01430303  0.08988540  1
  H  H7  1  0.01430303  0.38467082  0.41011460  1
  H  H8  1  0.61532918  0.98569697  0.91011460  1
  H  H9  1  0.98569697  0.61532918  0.58988540  1
  H  H10  1  0.59282388  0.06998515  0.24698139  1
  H  H11  1  0.06998515  0.59282388  0.25301861  1
  H  H12  1  0.40717612  0.93001485  0.75301861  1
  H  H13  1  0.93001485  0.40717612  0.74698139  1
  C  C14  1  0.73836246  0.88476318  0.60449892  1
  C  C15  1  0.88476318  0.73836246  0.89550108  1
  C  C16  1  0.26163754  0.11523682  0.39550108  1
  C  C17  1  0.11523682  0.26163754  0.10449892  1
  C  C18  1  0.50298839  0.50298839  0.75000000  1
  C  C19  1  0.49701161  0.49701161  0.25000000  1
  N  N20  1  0.90568057  0.90568057  0.75000000  1
  N  N21  1  0.09431943  0.09431943  0.25000000  1
  N  N22  1  0.53962747  0.68025096  0.61136365  1
  N  N23  1  0.68025096  0.53962747  0.88863635  1
  N  N24  1  0.46037253  0.31974904  0.38863635  1
  N  N25  1  0.31974904  0.46037253  0.11136365  1
  O  O26  1  0.76647513  0.04108340  0.47688860  1
  O  O27  1  0.04108340  0.76647513  0.02311140  1
  O  O28  1  0.23352487  0.95891660  0.52311140  1
  O  O29  1  0.95891660  0.23352487  0.97688860  1
  O  O30  1  0.32112908  0.32112908  0.75000000  1
  O  O31  1  0.67887092  0.67887092  0.25000000  1
  O  O32  1  0.52889973  0.13785342  0.13517641  1
  O  O33  1  0.13785342  0.52889973  0.36482359  1
  O  O34  1  0.47110027  0.86214658  0.86482359  1
  O  O35  1  0.86214658  0.47110027  0.63517641  1
