# generated using pymatgen
data_LiAgF2
_symmetry_space_group_name_H-M   'P 1'
_cell_length_a   3.18054857
_cell_length_b   5.10805288
_cell_length_c   6.74153585
_cell_angle_alpha   90.00000000
_cell_angle_beta   90.00000000
_cell_angle_gamma   89.92435269
_symmetry_Int_Tables_number   1
_chemical_formula_structural   LiAgF2
_chemical_formula_sum   'Li2 Ag2 F4'
_cell_volume   109.52566195
_cell_formula_units_Z   2
loop_
 _symmetry_equiv_pos_site_id
 _symmetry_equiv_pos_as_xyz
  1  'x, y, z'
loop_
 _atom_site_type_symbol
 _atom_site_label
 _atom_site_symmetry_multiplicity
 _atom_site_fract_x
 _atom_site_fract_y
 _atom_site_fract_z
 _atom_site_occupancy
  Li  Li0  1  0.43248536  0.08530820  0.33435990  1
  Li  Li1  1  0.93248436  0.58530720  0.16563910  1
  Ag  Ag2  1  0.44128749  0.60106946  0.61576822  1
  Ag  Ag3  1  0.94128749  0.10106946  0.88423178  1
  F  F4  1  0.43260224  0.71987152  0.28217954  1
  F  F5  1  0.43848991  0.11490282  0.61260942  1
  F  F6  1  0.93260224  0.21987152  0.21782046  1
  F  F7  1  0.93848991  0.61490282  0.88739058  1
