# generated using pymatgen
data_Cr(PO3)3
_symmetry_space_group_name_H-M   'P 1'
_cell_length_a   8.43861917
_cell_length_b   8.56244632
_cell_length_c   8.58455209
_cell_angle_alpha   90.00000000
_cell_angle_beta   90.00000000
_cell_angle_gamma   90.00000000
_symmetry_Int_Tables_number   1
_chemical_formula_structural   Cr(PO3)3
_chemical_formula_sum   'Cr4 P12 O36'
_cell_volume   620.27873127
_cell_formula_units_Z   4
loop_
 _symmetry_equiv_pos_site_id
 _symmetry_equiv_pos_as_xyz
  1  'x, y, z'
loop_
 _atom_site_type_symbol
 _atom_site_label
 _atom_site_symmetry_multiplicity
 _atom_site_fract_x
 _atom_site_fract_y
 _atom_site_fract_z
 _atom_site_occupancy
  Cr  Cr0  1  0.13149392  0.85567739  0.15293911  1
  Cr  Cr1  1  0.36850608  0.14432261  0.65293911  1
  Cr  Cr2  1  0.63149392  0.64432261  0.84706089  1
  Cr  Cr3  1  0.86850608  0.35567739  0.34706089  1
  P  P4  1  0.03318812  0.32231604  0.68553510  1
  P  P5  1  0.18155866  0.48420834  0.19036048  1
  P  P6  1  0.20584925  0.81022615  0.55342821  1
  P  P7  1  0.29415075  0.18977385  0.05342821  1
  P  P8  1  0.31844134  0.51579166  0.69036048  1
  P  P9  1  0.46681188  0.67768396  0.18553510  1
  P  P10  1  0.53318812  0.17768396  0.31446490  1
  P  P11  1  0.68155866  0.01579166  0.80963952  1
  P  P12  1  0.70584925  0.68977385  0.44657179  1
  P  P13  1  0.79415075  0.31022615  0.94657179  1
  P  P14  1  0.81844134  0.98420834  0.30963952  1
  P  P15  1  0.96681188  0.82231604  0.81446490  1
  O  O16  1  0.04559894  0.77876813  0.65095728  1
  O  O17  1  0.09712875  0.62419584  0.12608618  1
  O  O18  1  0.09508458  0.87398591  0.92349824  1
  O  O19  1  0.10431536  0.39874601  0.32360207  1
  O  O20  1  0.13727085  0.18930251  0.63472012  1
  O  O21  1  0.14069631  0.46895046  0.74090284  1
  O  O22  1  0.15700481  0.84563251  0.38995317  1
  O  O23  1  0.18533409  0.08384364  0.14228563  1
  O  O24  1  0.21691240  0.36279043  0.05131083  1
  O  O25  1  0.28308760  0.63720957  0.55131083  1
  O  O26  1  0.31466591  0.91615636  0.64228563  1
  O  O27  1  0.34299519  0.15436749  0.88995317  1
  O  O28  1  0.35930369  0.53104954  0.24090284  1
  O  O29  1  0.36272915  0.81069749  0.13472012  1
  O  O30  1  0.39568464  0.60125399  0.82360207  1
  O  O31  1  0.40491542  0.12601409  0.42349824  1
  O  O32  1  0.40287125  0.37580416  0.62608618  1
  O  O33  1  0.45440106  0.22123187  0.15095728  1
  O  O34  1  0.54559894  0.72123187  0.34904272  1
  O  O35  1  0.59712875  0.87580416  0.87391382  1
  O  O36  1  0.59508458  0.62601409  0.07650176  1
  O  O37  1  0.60431536  0.10125399  0.67639793  1
  O  O38  1  0.63727085  0.31069749  0.36527988  1
  O  O39  1  0.64069631  0.03104954  0.25909716  1
  O  O40  1  0.65700481  0.65436749  0.61004683  1
  O  O41  1  0.68533409  0.41615636  0.85771437  1
  O  O42  1  0.71691240  0.13720957  0.94868917  1
  O  O43  1  0.78308760  0.86279043  0.44868917  1
  O  O44  1  0.81466591  0.58384364  0.35771437  1
  O  O45  1  0.84299519  0.34563251  0.11004683  1
  O  O46  1  0.85930369  0.96895046  0.75909716  1
  O  O47  1  0.86272915  0.68930251  0.86527988  1
  O  O48  1  0.89568464  0.89874601  0.17639793  1
  O  O49  1  0.90491542  0.37398591  0.57650176  1
  O  O50  1  0.90287125  0.12419584  0.37391382  1
  O  O51  1  0.95440106  0.27876813  0.84904272  1
