# generated using pymatgen
data_Rb3W2N5
_symmetry_space_group_name_H-M   'P 1'
_cell_length_a   13.42565068
_cell_length_b   13.42565068
_cell_length_c   9.81687748
_cell_angle_alpha   90.00000000
_cell_angle_beta   90.00000000
_cell_angle_gamma   90.00000000
_symmetry_Int_Tables_number   1
_chemical_formula_structural   Rb3W2N5
_chemical_formula_sum   'Rb24 W16 N40'
_cell_volume   1769.47347622
_cell_formula_units_Z   8
loop_
 _symmetry_equiv_pos_site_id
 _symmetry_equiv_pos_as_xyz
  1  'x, y, z'
loop_
 _atom_site_type_symbol
 _atom_site_label
 _atom_site_symmetry_multiplicity
 _atom_site_fract_x
 _atom_site_fract_y
 _atom_site_fract_z
 _atom_site_occupancy
  Rb  Rb0  1  0.08860353  0.28910919  0.76373835  1
  Rb  Rb1  1  0.91139647  0.71089081  0.76373835  1
  Rb  Rb2  1  0.78910919  0.91139647  0.01373835  1
  Rb  Rb3  1  0.21089081  0.08860353  0.01373835  1
  Rb  Rb4  1  0.08493875  0.76638226  0.43171841  1
  Rb  Rb5  1  0.91506125  0.23361774  0.43171841  1
  Rb  Rb6  1  0.26638226  0.91506125  0.68171841  1
  Rb  Rb7  1  0.73361774  0.08493875  0.68171841  1
  Rb  Rb8  1  0.00000000  0.50000000  0.96266627  1
  Rb  Rb9  1  0.00000000  0.00000000  0.21266627  1
  Rb  Rb10  1  0.00000000  0.00000000  0.73083578  1
  Rb  Rb11  1  0.00000000  0.50000000  0.48083578  1
  Rb  Rb12  1  0.58860353  0.78910919  0.26373835  1
  Rb  Rb13  1  0.41139647  0.21089081  0.26373835  1
  Rb  Rb14  1  0.28910919  0.41139647  0.51373835  1
  Rb  Rb15  1  0.71089081  0.58860353  0.51373835  1
  Rb  Rb16  1  0.58493875  0.26638226  0.93171841  1
  Rb  Rb17  1  0.41506125  0.73361774  0.93171841  1
  Rb  Rb18  1  0.76638226  0.41506125  0.18171841  1
  Rb  Rb19  1  0.23361774  0.58493875  0.18171841  1
  Rb  Rb20  1  0.50000000  0.00000000  0.46266627  1
  Rb  Rb21  1  0.50000000  0.50000000  0.71266627  1
  Rb  Rb22  1  0.50000000  0.50000000  0.23083578  1
  Rb  Rb23  1  0.50000000  0.00000000  0.98083578  1
  W  W24  1  0.18583854  0.11881596  0.44013926  1
  W  W25  1  0.81416146  0.88118404  0.44013926  1
  W  W26  1  0.11881596  0.31416146  0.19013926  1
  W  W27  1  0.88118404  0.68583854  0.19013926  1
  W  W28  1  0.90257774  0.22470286  0.03312407  1
  W  W29  1  0.09742226  0.77529714  0.03312407  1
  W  W30  1  0.72470286  0.09742226  0.28312407  1
  W  W31  1  0.27529714  0.90257774  0.28312407  1
  W  W32  1  0.68583854  0.61881596  0.94013926  1
  W  W33  1  0.31416146  0.38118404  0.94013926  1
  W  W34  1  0.61881596  0.81416146  0.69013926  1
  W  W35  1  0.38118404  0.18583854  0.69013926  1
  W  W36  1  0.40257774  0.72470286  0.53312407  1
  W  W37  1  0.59742226  0.27529714  0.53312407  1
  W  W38  1  0.22470286  0.59742226  0.78312407  1
  W  W39  1  0.77529714  0.40257774  0.78312407  1
  N  N40  1  0.08356058  0.14201972  0.55028338  1
  N  N41  1  0.91643942  0.85798028  0.55028338  1
  N  N42  1  0.64201972  0.91643942  0.80028338  1
  N  N43  1  0.35798028  0.08356058  0.80028338  1
  N  N44  1  0.63638137  0.01482738  0.20854615  1
  N  N45  1  0.36361863  0.98517262  0.20854615  1
  N  N46  1  0.01482738  0.86361863  0.95854615  1
  N  N47  1  0.98517262  0.13638137  0.95854615  1
  N  N48  1  0.30579175  0.16169934  0.52757057  1
  N  N49  1  0.69420825  0.83830066  0.52757057  1
  N  N50  1  0.16169934  0.19420825  0.27757057  1
  N  N51  1  0.83830066  0.80579175  0.27757057  1
  N  N52  1  0.80572784  0.15717631  0.14452002  1
  N  N53  1  0.19427216  0.84282369  0.14452002  1
  N  N54  1  0.15717631  0.69427216  0.89452002  1
  N  N55  1  0.84282369  0.30572784  0.89452002  1
  N  N56  1  0.97629020  0.31232771  0.15215826  1
  N  N57  1  0.02370980  0.68767229  0.15215826  1
  N  N58  1  0.81232771  0.02370980  0.40215826  1
  N  N59  1  0.18767229  0.97629020  0.40215826  1
  N  N60  1  0.58356058  0.64201972  0.05028338  1
  N  N61  1  0.41643942  0.35798028  0.05028338  1
  N  N62  1  0.14201972  0.41643942  0.30028338  1
  N  N63  1  0.85798028  0.58356058  0.30028338  1
  N  N64  1  0.13638137  0.51482738  0.70854615  1
  N  N65  1  0.86361863  0.48517262  0.70854615  1
  N  N66  1  0.51482738  0.36361863  0.45854615  1
  N  N67  1  0.48517262  0.63638137  0.45854615  1
  N  N68  1  0.80579175  0.66169934  0.02757057  1
  N  N69  1  0.19420825  0.33830066  0.02757057  1
  N  N70  1  0.66169934  0.69420825  0.77757057  1
  N  N71  1  0.33830066  0.30579175  0.77757057  1
  N  N72  1  0.30572784  0.65717631  0.64452002  1
  N  N73  1  0.69427216  0.34282369  0.64452002  1
  N  N74  1  0.65717631  0.19427216  0.39452002  1
  N  N75  1  0.34282369  0.80572784  0.39452002  1
  N  N76  1  0.47629020  0.81232771  0.65215826  1
  N  N77  1  0.52370980  0.18767229  0.65215826  1
  N  N78  1  0.31232771  0.52370980  0.90215826  1
  N  N79  1  0.68767229  0.47629020  0.90215826  1
