# generated using pymatgen
data_W(ClO)2
_symmetry_space_group_name_H-M   'P 1'
_cell_length_a   3.87457876
_cell_length_b   8.32216380
_cell_length_c   7.72434582
_cell_angle_alpha   90.00000000
_cell_angle_beta   90.00000000
_cell_angle_gamma   90.00000000
_symmetry_Int_Tables_number   1
_chemical_formula_structural   W(ClO)2
_chemical_formula_sum   'W2 Cl4 O4'
_cell_volume   249.07059707
_cell_formula_units_Z   2
loop_
 _symmetry_equiv_pos_site_id
 _symmetry_equiv_pos_as_xyz
  1  'x, y, z'
loop_
 _atom_site_type_symbol
 _atom_site_label
 _atom_site_symmetry_multiplicity
 _atom_site_fract_x
 _atom_site_fract_y
 _atom_site_fract_z
 _atom_site_occupancy
  W  W0  1  0.97117033  0.00000000  0.47681876  1
  W  W1  1  0.02883067  0.00000000  0.97681876  1
  Cl  Cl2  1  0.00978350  0.72095888  0.45903703  1
  Cl  Cl3  1  0.00978350  0.27904212  0.45903703  1
  Cl  Cl4  1  0.99021750  0.72095888  0.95903803  1
  Cl  Cl5  1  0.99021750  0.27904212  0.95903803  1
  O  O6  1  0.49572669  0.00000000  0.46666528  1
  O  O7  1  0.50427431  0.00000000  0.96666528  1
  O  O8  1  0.99819272  0.00000000  0.71644090  1
  O  O9  1  0.00180728  0.00000000  0.21644090  1
