# generated using pymatgen
data_Li2H2SeO5
_symmetry_space_group_name_H-M   'P 1'
_cell_length_a   5.95028179
_cell_length_b   5.03041143
_cell_length_c   8.99153034
_cell_angle_alpha   90.00000000
_cell_angle_beta   114.76298072
_cell_angle_gamma   90.00000000
_symmetry_Int_Tables_number   1
_chemical_formula_structural   Li2H2SeO5
_chemical_formula_sum   'Li4 H4 Se2 O10'
_cell_volume   244.39009701
_cell_formula_units_Z   2
loop_
 _symmetry_equiv_pos_site_id
 _symmetry_equiv_pos_as_xyz
  1  'x, y, z'
loop_
 _atom_site_type_symbol
 _atom_site_label
 _atom_site_symmetry_multiplicity
 _atom_site_fract_x
 _atom_site_fract_y
 _atom_site_fract_z
 _atom_site_occupancy
  Li  Li0  1  0.30860666  0.99096598  0.99621310  1
  Li  Li1  1  0.44258393  0.47150881  0.57917205  1
  Li  Li2  1  0.55741607  0.97150881  0.42082795  1
  Li  Li3  1  0.69139334  0.49096598  0.00378690  1
  H  H4  1  0.95653429  0.86561617  0.64387202  1
  H  H5  1  0.99766017  0.54262534  0.48532627  1
  H  H6  1  0.00233983  0.04262534  0.51467373  1
  H  H7  1  0.04346571  0.36561617  0.35612798  1
  Se  Se8  1  0.31873097  0.48341238  0.19762453  1
  Se  Se9  1  0.68126903  0.98341238  0.80237547  1
  O  O10  1  0.97028492  0.88773883  0.84225020  1
  O  O11  1  0.08671854  0.38138621  0.47537253  1
  O  O12  1  0.59880405  0.86727673  0.94700132  1
  O  O13  1  0.34768234  0.81498610  0.20667579  1
  O  O14  1  0.50815609  0.36343046  0.38203403  1
  O  O15  1  0.49184391  0.86343046  0.61796597  1
  O  O16  1  0.65231766  0.31498610  0.79332421  1
  O  O17  1  0.40119595  0.36727673  0.05299868  1
  O  O18  1  0.91328146  0.88138621  0.52462747  1
  O  O19  1  0.02971508  0.38773883  0.15774980  1
