# generated using pymatgen
data_KLiMnS2
_symmetry_space_group_name_H-M   'P 1'
_cell_length_a   4.06267279
_cell_length_b   7.23988212
_cell_length_c   4.06267279
_cell_angle_alpha   73.70542121
_cell_angle_beta   90.00000000
_cell_angle_gamma   106.29457879
_symmetry_Int_Tables_number   1
_chemical_formula_structural   KLiMnS2
_chemical_formula_sum   'K1 Li1 Mn1 S2'
_cell_volume   109.68674403
_cell_formula_units_Z   1
loop_
 _symmetry_equiv_pos_site_id
 _symmetry_equiv_pos_as_xyz
  1  'x, y, z'
loop_
 _atom_site_type_symbol
 _atom_site_label
 _atom_site_symmetry_multiplicity
 _atom_site_fract_x
 _atom_site_fract_y
 _atom_site_fract_z
 _atom_site_occupancy
  K  K0  1  0.00000000  0.00000000  0.00000000  1
  Li  Li1  1  0.25000000  0.50000000  0.25000000  1
  Mn  Mn2  1  0.75000000  0.50000000  0.75000000  1
  S  S3  1  0.64937740  0.29875380  0.35062260  1
  S  S4  1  0.35062260  0.70124620  0.64937740  1
