# generated using pymatgen
data_Li2Mn3NiO8
_symmetry_space_group_name_H-M   'P 1'
_cell_length_a   5.79738713
_cell_length_b   5.79732087
_cell_length_c   9.58291214
_cell_angle_alpha   89.99930451
_cell_angle_beta   90.00035003
_cell_angle_gamma   119.99962449
_symmetry_Int_Tables_number   1
_chemical_formula_structural   Li2Mn3NiO8
_chemical_formula_sum   'Li4 Mn6 Ni2 O16'
_cell_volume   278.92627169
_cell_formula_units_Z   2
loop_
 _symmetry_equiv_pos_site_id
 _symmetry_equiv_pos_as_xyz
  1  'x, y, z'
loop_
 _atom_site_type_symbol
 _atom_site_label
 _atom_site_symmetry_multiplicity
 _atom_site_fract_x
 _atom_site_fract_y
 _atom_site_fract_z
 _atom_site_occupancy
  Li  Li0  1  0.33333370  0.66668259  0.88585223  1
  Li  Li1  1  0.99999514  0.00001741  0.99888430  1
  Li  Li2  1  0.00000486  0.00002227  0.49888430  1
  Li  Li3  1  0.66666630  0.33334889  0.38585223  1
  Mn  Mn4  1  0.16868211  0.83131580  0.21520755  1
  Mn  Mn5  1  0.16867695  0.33738306  0.21521100  1
  Mn  Mn6  1  0.66261458  0.83131453  0.21520723  1
  Mn  Mn7  1  0.33738542  0.16869995  0.71520723  1
  Mn  Mn8  1  0.83131789  0.66263369  0.71520755  1
  Mn  Mn9  1  0.83132305  0.16870611  0.71521100  1
  Ni  Ni10  1  0.33333721  0.66667732  0.48925445  1
  Ni  Ni11  1  0.66666279  0.33334011  0.98925445  1
  O  O12  1  0.15849522  0.84152060  0.60706389  1
  O  O13  1  0.03509822  0.51755831  0.33072760  1
  O  O14  1  0.33332841  0.66667383  0.10884759  1
  O  O15  1  0.99998604  -0.00000210  0.31209122  1
  O  O16  1  0.00001396  0.00001186  0.81209122  1
  O  O17  1  0.15849661  0.31699847  0.60706624  1
  O  O18  1  0.48244192  0.96490817  0.33072055  1
  O  O19  1  0.48243683  0.51755025  0.33072345  1
  O  O20  1  0.31697005  0.15849826  0.10706169  1
  O  O21  1  0.68302995  0.84152821  0.60706169  1
  O  O22  1  0.51755808  0.48246624  0.83072055  1
  O  O23  1  0.51756317  0.03511343  0.83072345  1
  O  O24  1  0.66667159  0.33334542  0.60884759  1
  O  O25  1  0.84150478  0.68302538  0.10706389  1
  O  O26  1  0.96490178  0.48246009  0.83072760  1
  O  O27  1  0.84150339  0.15850186  0.10706624  1
