# generated using pymatgen
data_RbV(CuS2)2
_symmetry_space_group_name_H-M   'P 1'
_cell_length_a   5.42580367
_cell_length_b   7.48975841
_cell_length_c   9.66570978
_cell_angle_alpha   90.00000000
_cell_angle_beta   106.30036364
_cell_angle_gamma   90.00000000
_symmetry_Int_Tables_number   1
_chemical_formula_structural   RbV(CuS2)2
_chemical_formula_sum   'Rb2 V2 Cu4 S8'
_cell_volume   377.00574575
_cell_formula_units_Z   2
loop_
 _symmetry_equiv_pos_site_id
 _symmetry_equiv_pos_as_xyz
  1  'x, y, z'
loop_
 _atom_site_type_symbol
 _atom_site_label
 _atom_site_symmetry_multiplicity
 _atom_site_fract_x
 _atom_site_fract_y
 _atom_site_fract_z
 _atom_site_occupancy
  S  S0  1  0.94320975  0.01044188  0.21158757  1
  S  S1  1  0.36323911  0.75000000  0.98606111  1
  S  S2  1  0.37717800  0.25000000  0.01393889  1
  S  S3  1  0.73162218  0.51044188  0.78841243  1
  S  S4  1  0.16702878  0.75000000  0.59920875  1
  S  S5  1  0.73162218  0.98955812  0.78841243  1
  S  S6  1  0.56782003  0.25000000  0.40079125  1
  S  S7  1  0.94320975  0.48955812  0.21158757  1
  V  V8  1  0.49729439  0.75000000  0.78787949  1
  V  V9  1  0.70941490  0.25000000  0.21212051  1
  Cu  Cu10  1  0.61881774  0.50000000  0.00000000  1
  Cu  Cu11  1  0.20684901  0.25000000  0.20810631  1
  Cu  Cu12  1  0.99874270  0.75000000  0.79189369  1
  Cu  Cu13  1  0.61881774  0.00000000  0.00000000  1
  Rb  Rb14  1  0.54128052  0.75000000  0.36562729  1
  Rb  Rb15  1  0.17565323  0.25000000  0.63437271  1
