# generated using pymatgen
data_LiH3(SeO3)2
_symmetry_space_group_name_H-M   'P 1'
_cell_length_a   6.31062657
_cell_length_b   8.01307628
_cell_length_c   5.56004831
_cell_angle_alpha   90.00000000
_cell_angle_beta   105.55696528
_cell_angle_gamma   90.00000000
_symmetry_Int_Tables_number   1
_chemical_formula_structural   LiH3(SeO3)2
_chemical_formula_sum   'Li2 H6 Se4 O12'
_cell_volume   270.85749820
_cell_formula_units_Z   2
loop_
 _symmetry_equiv_pos_site_id
 _symmetry_equiv_pos_as_xyz
  1  'x, y, z'
loop_
 _atom_site_type_symbol
 _atom_site_label
 _atom_site_symmetry_multiplicity
 _atom_site_fract_x
 _atom_site_fract_y
 _atom_site_fract_z
 _atom_site_occupancy
  Li  Li0  1  0.99694867  0.75281087  0.52207097  1
  Li  Li1  1  0.49694867  0.24718913  0.02207097  1
  H  H2  1  0.67472110  0.85505546  0.10023940  1
  H  H3  1  0.17472110  0.14494454  0.60023940  1
  H  H4  1  0.38362051  0.61700598  0.92636273  1
  H  H5  1  0.88362051  0.38299402  0.42636273  1
  H  H6  1  0.44751348  0.76973496  0.47292456  1
  H  H7  1  0.94751348  0.23026504  0.97292456  1
  Se  Se8  1  0.76605722  0.60690862  0.91154613  1
  Se  Se9  1  0.26605722  0.39309138  0.41154613  1
  Se  Se10  1  0.23303303  0.89669294  0.08601464  1
  Se  Se11  1  0.73303303  0.10330706  0.58601464  1
  O  O12  1  0.80855966  0.77465672  0.13522375  1
  O  O13  1  0.30855966  0.22534328  0.63522375  1
  O  O14  1  0.20134745  0.72299441  0.89746829  1
  O  O15  1  0.70134745  0.27700559  0.39746829  1
  O  O16  1  0.69805216  0.70865970  0.63691346  1
  O  O17  1  0.19805216  0.29134030  0.13691346  1
  O  O18  1  0.28775700  0.79623572  0.39195804  1
  O  O19  1  0.78775700  0.20376428  0.89195804  1
  O  O20  1  0.51349946  0.52550476  0.94427305  1
  O  O21  1  0.01349946  0.47449524  0.44427305  1
  O  O22  1  0.48308026  0.97600503  0.08343497  1
  O  O23  1  0.98308026  0.02399497  0.58343497  1
