# generated using pymatgen
data_Ho(AlCl4)3
_symmetry_space_group_name_H-M   'P 1'
_cell_length_a   10.80024052
_cell_length_b   10.80024051
_cell_length_c   15.98017566
_cell_angle_alpha   90.00000000
_cell_angle_beta   90.00000000
_cell_angle_gamma   120.00000002
_symmetry_Int_Tables_number   1
_chemical_formula_structural   Ho(AlCl4)3
_chemical_formula_sum   'Ho3 Al9 Cl36'
_cell_volume   1614.28062707
_cell_formula_units_Z   3
loop_
 _symmetry_equiv_pos_site_id
 _symmetry_equiv_pos_as_xyz
  1  'x, y, z'
loop_
 _atom_site_type_symbol
 _atom_site_label
 _atom_site_symmetry_multiplicity
 _atom_site_fract_x
 _atom_site_fract_y
 _atom_site_fract_z
 _atom_site_occupancy
  Al  Al0  1  0.73133451  0.26866549  0.83333333  1
  Al  Al1  1  0.12903877  0.76300183  0.60299074  1
  Al  Al2  1  0.23699817  0.36603694  0.93632407  1
  Al  Al3  1  0.63396306  0.87096123  0.26965740  1
  Al  Al4  1  0.73133451  0.46266903  0.16666667  1
  Al  Al5  1  0.53733097  0.26866549  0.50000000  1
  Al  Al6  1  0.12903877  0.36603694  0.39700926  1
  Al  Al7  1  0.63396306  0.76300183  0.73034260  1
  Al  Al8  1  0.23699817  0.87096123  0.06367593  1
  Cl  Cl9  1  1.00803331  0.84065712  0.54361940  1
  Cl  Cl10  1  0.83262381  -0.00803331  0.21028607  1
  Cl  Cl11  1  0.15934288  0.16737619  0.87695274  1
  Cl  Cl12  1  0.78971342  0.59034921  0.27976229  1
  Cl  Cl13  1  0.40965079  0.19936422  0.61309562  1
  Cl  Cl14  1  0.80063578  0.21028658  0.94642896  1
  Cl  Cl15  1  0.40965079  0.21028658  0.38690438  1
  Cl  Cl16  1  0.80063578  0.59034921  0.05357104  1
  Cl  Cl17  1  0.78971342  0.19936422  0.72023771  1
  Cl  Cl18  1  0.22665205  0.34600696  0.27842506  1
  Cl  Cl19  1  0.65399304  0.88064509  0.61175840  1
  Cl  Cl20  1  0.11935491  0.77334795  0.94509173  1
  Cl  Cl21  1  0.65399304  0.77334795  0.38824160  1
  Cl  Cl22  1  0.11935491  0.34600696  0.05490827  1
  Cl  Cl23  1  0.22665205  0.88064509  0.72157494  1
  Cl  Cl24  1  0.50344933  0.66082927  0.20503330  1
  Cl  Cl25  1  0.33917073  0.84262006  0.53836664  1
  Cl  Cl26  1  0.15737994  0.49655067  0.87169997  1
  Cl  Cl27  1  0.33917073  0.49655067  0.46163336  1
  Cl  Cl28  1  0.15737994  0.66082927  0.12830003  1
  Cl  Cl29  1  0.50344933  0.84262006  0.79496670  1
  Cl  Cl30  1  0.66181691  0.49704032  0.48205649  1
  Cl  Cl31  1  0.50295968  0.16477659  0.81538983  1
  Cl  Cl32  1  0.83522341  0.33818309  0.14872316  1
  Cl  Cl33  1  0.50295968  0.33818309  0.18461017  1
  Cl  Cl34  1  0.83522341  0.49704032  0.85127684  1
  Cl  Cl35  1  0.66181691  0.16477659  0.51794351  1
  Cl  Cl36  1  0.03143258  0.49039058  0.37648870  1
  Cl  Cl37  1  0.50960942  0.54104199  0.70982204  1
  Cl  Cl38  1  0.45895801  0.96856742  0.04315537  1
  Cl  Cl39  1  0.50960942  0.96856742  0.29017796  1
  Cl  Cl40  1  0.45895801  0.49039058  0.95684463  1
  Cl  Cl41  1  0.03143258  0.54104199  0.62351130  1
  Cl  Cl42  1  1.00803331  0.16737619  0.45638060  1
  Cl  Cl43  1  0.83262381  0.84065712  0.78971393  1
  Cl  Cl44  1  0.15934288  -0.00803331  0.12304726  1
  Ho  Ho45  1  0.99092179  0.49546090  0.00000000  1
  Ho  Ho46  1  0.50453910  0.00907821  0.66666667  1
  Ho  Ho47  1  0.50453910  0.49546090  0.33333333  1
