# generated using pymatgen
data_Na5Fe2P2(CO7)2
_symmetry_space_group_name_H-M   'P 1'
_cell_length_a   8.92888877
_cell_length_b   5.21066302
_cell_length_c   6.60446797
_cell_angle_alpha   90.00000000
_cell_angle_beta   90.00000000
_cell_angle_gamma   89.44387065
_symmetry_Int_Tables_number   1
_chemical_formula_structural   Na5Fe2P2(CO7)2
_chemical_formula_sum   'Na5 Fe2 P2 C2 O14'
_cell_volume   307.26124143
_cell_formula_units_Z   1
loop_
 _symmetry_equiv_pos_site_id
 _symmetry_equiv_pos_as_xyz
  1  'x, y, z'
loop_
 _atom_site_type_symbol
 _atom_site_label
 _atom_site_symmetry_multiplicity
 _atom_site_fract_x
 _atom_site_fract_y
 _atom_site_fract_z
 _atom_site_occupancy
  Na  Na0  1  0.25041277  0.24463768  0.00562560  1
  Na  Na1  1  0.25041277  0.24463768  0.49437440  1
  Na  Na2  1  0.74855899  0.75123637  0.50111087  1
  Na  Na3  1  0.74855899  0.75123637  0.99888913  1
  Na  Na4  1  0.92242930  0.23778496  0.75000000  1
  Fe  Fe5  1  0.35158671  0.77983675  0.75000000  1
  Fe  Fe6  1  0.64824218  0.21629108  0.25000000  1
  P  P7  1  0.42010749  0.71344561  0.25000000  1
  P  P8  1  0.58184104  0.29858735  0.75000000  1
  C  C9  1  0.06190618  0.72749495  0.75000000  1
  C  C10  1  0.92988331  0.26583055  0.25000000  1
  O  O11  1  0.06923600  0.29220755  0.25000000  1
  O  O12  1  0.12794089  0.94962022  0.75000000  1
  O  O13  1  0.14677301  0.52296211  0.75000000  1
  O  O14  1  0.33107700  0.77971019  0.05815134  1
  O  O15  1  0.33107700  0.77971019  0.44184866  1
  O  O16  1  0.42889577  0.16556663  0.75000000  1
  O  O17  1  0.45924668  0.41446764  0.25000000  1
  O  O18  1  0.56217662  0.59577717  0.75000000  1
  O  O19  1  0.57476458  0.85618289  0.25000000  1
  O  O20  1  0.67935199  0.21677712  0.56227659  1
  O  O21  1  0.67935199  0.21677712  0.93772341  1
  O  O22  1  0.83371333  0.46204954  0.25000000  1
  O  O23  1  0.86278421  0.04166069  0.25000000  1
  O  O24  1  0.91757520  0.71058457  0.75000000  1
