# generated using pymatgen
data_Sr4Al6WO16
_symmetry_space_group_name_H-M   'P 1'
_cell_length_a   8.34656284
_cell_length_b   8.34656284
_cell_length_c   8.34656284
_cell_angle_alpha   109.47122062
_cell_angle_beta   109.47122062
_cell_angle_gamma   109.47122062
_symmetry_Int_Tables_number   1
_chemical_formula_structural   Sr4Al6WO16
_chemical_formula_sum   'Sr4 Al6 W1 O16'
_cell_volume   447.61137180
_cell_formula_units_Z   1
loop_
 _symmetry_equiv_pos_site_id
 _symmetry_equiv_pos_as_xyz
  1  'x, y, z'
loop_
 _atom_site_type_symbol
 _atom_site_label
 _atom_site_symmetry_multiplicity
 _atom_site_fract_x
 _atom_site_fract_y
 _atom_site_fract_z
 _atom_site_occupancy
  O  O0  1  0.34380782  0.00000000  0.66010992  1
  O  O1  1  0.33989008  0.68369790  0.33989008  1
  O  O2  1  0.66010992  0.00000000  0.34380782  1
  O  O3  1  0.31630210  0.65619218  0.65619218  1
  O  O4  1  0.65619218  0.65619218  0.31630210  1
  O  O5  1  0.66010992  0.34380782  0.00000000  1
  O  O6  1  0.68369790  0.33989008  0.33989008  1
  O  O7  1  0.34380782  0.66010992  0.00000000  1
  O  O8  1  0.00000000  0.66010992  0.34380782  1
  O  O9  1  0.33989008  0.33989008  0.68369790  1
  O  O10  1  0.00000000  0.34380782  0.66010992  1
  O  O11  1  0.78356140  0.78356140  0.78356140  1
  O  O12  1  0.00000000  0.21643860  0.00000000  1
  O  O13  1  0.00000000  0.00000000  0.21643860  1
  O  O14  1  0.21643860  0.00000000  0.00000000  1
  O  O15  1  0.65619218  0.31630210  0.65619218  1
  Al  Al16  1  0.75000000  0.25000000  0.50000000  1
  Al  Al17  1  0.50000000  0.75000000  0.25000000  1
  Al  Al18  1  0.75000000  0.50000000  0.25000000  1
  Al  Al19  1  0.25000000  0.75000000  0.50000000  1
  Al  Al20  1  0.50000000  0.25000000  0.75000000  1
  Al  Al21  1  0.25000000  0.50000000  0.75000000  1
  Sr  Sr22  1  0.00000000  0.50377922  0.00000000  1
  Sr  Sr23  1  0.50377922  0.00000000  0.00000000  1
  Sr  Sr24  1  0.49622078  0.49622078  0.49622078  1
  Sr  Sr25  1  0.00000000  0.00000000  0.50377922  1
  W  W26  1  0.00000000  0.00000000  0.00000000  1
