# generated using pymatgen
data_Li6MnFeP2(CO7)2
_symmetry_space_group_name_H-M   'P 1'
_cell_length_a   8.52896594
_cell_length_b   4.99688039
_cell_length_c   6.57540460
_cell_angle_alpha   90.00000000
_cell_angle_beta   90.00000000
_cell_angle_gamma   85.47359998
_symmetry_Int_Tables_number   1
_chemical_formula_structural   Li6MnFeP2(CO7)2
_chemical_formula_sum   'Li6 Mn1 Fe1 P2 C2 O14'
_cell_volume   279.35803520
_cell_formula_units_Z   1
loop_
 _symmetry_equiv_pos_site_id
 _symmetry_equiv_pos_as_xyz
  1  'x, y, z'
loop_
 _atom_site_type_symbol
 _atom_site_label
 _atom_site_symmetry_multiplicity
 _atom_site_fract_x
 _atom_site_fract_y
 _atom_site_fract_z
 _atom_site_occupancy
  Li  Li0  1  0.09104002  0.75790252  0.25000000  1
  Li  Li1  1  0.27359429  0.24611822  0.02536898  1
  Li  Li2  1  0.27359429  0.24611822  0.47463102  1
  Li  Li3  1  0.72614993  0.75406276  0.52720793  1
  Li  Li4  1  0.72614993  0.75406276  0.97279207  1
  Li  Li5  1  0.90807778  0.24097030  0.75000000  1
  Mn  Mn6  1  0.65944302  0.22102814  0.25000000  1
  Fe  Fe7  1  0.33646792  0.78555573  0.75000000  1
  P  P8  1  0.40999368  0.71917511  0.25000000  1
  P  P9  1  0.58851911  0.28020066  0.75000000  1
  C  C10  1  0.03468661  0.70483013  0.75000000  1
  C  C11  1  0.96728762  0.29534835  0.25000000  1
  O  O12  1  0.07143827  0.95020912  0.75000000  1
  O  O13  1  0.11303250  0.35467103  0.25000000  1
  O  O14  1  0.14736827  0.51248979  0.75000000  1
  O  O15  1  0.31111801  0.82694249  0.06469653  1
  O  O16  1  0.31111801  0.82694249  0.43530347  1
  O  O17  1  0.42105166  0.18120182  0.75000000  1
  O  O18  1  0.42373165  0.40507458  0.25000000  1
  O  O19  1  0.57220395  0.59439669  0.75000000  1
  O  O20  1  0.57971211  0.81136019  0.25000000  1
  O  O21  1  0.68998770  0.17351293  0.93405862  1
  O  O22  1  0.68998770  0.17351293  0.56594138  1
  O  O23  1  0.85550821  0.49005631  0.25000000  1
  O  O24  1  0.88843366  0.64462797  0.75000000  1
  O  O25  1  0.93030110  0.04962978  0.25000000  1
