# generated using pymatgen
data_LiAl(SiO3)2
_symmetry_space_group_name_H-M   'P 1'
_cell_length_a   5.04480752
_cell_length_b   7.70346438
_cell_length_c   8.71050899
_cell_angle_alpha   65.81071835
_cell_angle_beta   89.91279571
_cell_angle_gamma   89.41401512
_symmetry_Int_Tables_number   1
_chemical_formula_structural   LiAl(SiO3)2
_chemical_formula_sum   'Li2 Al2 Si4 O12'
_cell_volume   308.77218932
_cell_formula_units_Z   2
loop_
 _symmetry_equiv_pos_site_id
 _symmetry_equiv_pos_as_xyz
  1  'x, y, z'
loop_
 _atom_site_type_symbol
 _atom_site_label
 _atom_site_symmetry_multiplicity
 _atom_site_fract_x
 _atom_site_fract_y
 _atom_site_fract_z
 _atom_site_occupancy
  Li  Li0  1  0.63849810  0.88303609  0.29459934  1
  Li  Li1  1  0.13244843  0.08427669  0.71547252  1
  Al  Al2  1  0.64295403  0.09051353  0.89618851  1
  Al  Al3  1  0.12813383  0.06383951  0.37886019  1
  Si  Si4  1  0.68930492  0.50655865  0.88402860  1
  Si  Si5  1  0.62798453  0.92898130  0.61741877  1
  Si  Si6  1  0.18672542  0.49252894  0.10183217  1
  Si  Si7  1  0.14418507  0.90030597  0.10479157  1
  O  O8  1  0.98374715  0.54289403  0.94265818  1
  O  O9  1  0.69424405  0.33138471  0.82850202  1
  O  O10  1  0.81106786  0.96471591  0.45152300  1
  O  O11  1  0.10222831  0.30604212  0.26270121  1
  O  O12  1  0.33048637  0.01987756  0.55784690  1
  O  O13  1  0.59712623  0.69998418  0.72316279  1
  O  O14  1  0.82641884  0.95451782  0.08296201  1
  O  O15  1  0.26433400  0.94104895  0.26203364  1
  O  O16  1  0.48491895  0.46638583  0.04052502  1
  O  O17  1  0.19118996  0.67460577  0.15400917  1
  O  O18  1  0.30248675  0.02837889  0.92985570  1
  O  O19  1  0.76191719  0.02822357  0.73282870  1
