# generated using pymatgen
data_Li3NbOF6
_symmetry_space_group_name_H-M   'P 1'
_cell_length_a   5.36050407
_cell_length_b   5.29868496
_cell_length_c   16.57990984
_cell_angle_alpha   90.00000000
_cell_angle_beta   90.00000000
_cell_angle_gamma   90.00000000
_symmetry_Int_Tables_number   1
_chemical_formula_structural   Li3NbOF6
_chemical_formula_sum   'Li12 Nb4 O4 F24'
_cell_volume   470.92949676
_cell_formula_units_Z   4
loop_
 _symmetry_equiv_pos_site_id
 _symmetry_equiv_pos_as_xyz
  1  'x, y, z'
loop_
 _atom_site_type_symbol
 _atom_site_label
 _atom_site_symmetry_multiplicity
 _atom_site_fract_x
 _atom_site_fract_y
 _atom_site_fract_z
 _atom_site_occupancy
  Li  Li0  1  0.21650915  0.49568883  0.99650764  1
  Li  Li1  1  0.24631425  0.98924595  0.87826890  1
  Li  Li2  1  0.23342678  0.46930528  0.25849434  1
  Li  Li3  1  0.26657322  0.53069472  0.75849434  1
  Li  Li4  1  0.25368575  0.01075405  0.37826890  1
  Li  Li5  1  0.28349085  0.50431117  0.49650764  1
  Li  Li6  1  0.71650915  0.00431117  0.00349236  1
  Li  Li7  1  0.74631425  0.51075405  0.12173110  1
  Li  Li8  1  0.73342678  0.03069472  0.74150566  1
  Li  Li9  1  0.76657322  0.96930528  0.24150566  1
  Li  Li10  1  0.75368575  0.48924595  0.62173110  1
  Li  Li11  1  0.78349085  0.99568883  0.50349236  1
  Nb  Nb12  1  0.25207288  0.00738185  0.62459927  1
  Nb  Nb13  1  0.24792712  0.99261815  0.12459927  1
  Nb  Nb14  1  0.75207288  0.49261815  0.37540073  1
  Nb  Nb15  1  0.74792712  0.50738185  0.87540073  1
  O  O16  1  0.03844237  0.33195778  0.39119729  1
  O  O17  1  0.46155763  0.66804222  0.89119729  1
  O  O18  1  0.53844237  0.16804222  0.60880271  1
  O  O19  1  0.96155763  0.83195778  0.10880271  1
  F  F20  1  0.04581526  0.26514826  0.55646367  1
  F  F21  1  0.09896727  0.32080376  0.86270921  1
  F  F22  1  0.07778646  0.25136075  0.70201801  1
  F  F23  1  0.11863733  0.35248088  0.12309974  1
  F  F24  1  0.13175894  0.08821548  0.24153416  1
  F  F25  1  0.21900980  0.87310078  0.50728477  1
  F  F26  1  0.28099020  0.12689922  0.00728477  1
  F  F27  1  0.36824106  0.91178452  0.74153416  1
  F  F28  1  0.38136267  0.64751912  0.62309974  1
  F  F29  1  0.42221354  0.74863925  0.20201801  1
  F  F30  1  0.40103273  0.67919624  0.36270921  1
  F  F31  1  0.45418474  0.73485174  0.05646367  1
  F  F32  1  0.54581526  0.23485174  0.44353633  1
  F  F33  1  0.59896727  0.17919624  0.13729079  1
  F  F34  1  0.57778646  0.24863925  0.29798199  1
  F  F35  1  0.61863733  0.14751912  0.87690026  1
  F  F36  1  0.63175894  0.41178452  0.75846584  1
  F  F37  1  0.71900980  0.62689922  0.49271523  1
  F  F38  1  0.78099020  0.37310078  0.99271523  1
  F  F39  1  0.86824106  0.58821548  0.25846584  1
  F  F40  1  0.88136267  0.85248088  0.37690026  1
  F  F41  1  0.92221354  0.75136075  0.79798199  1
  F  F42  1  0.90103273  0.82080376  0.63729079  1
  F  F43  1  0.95418474  0.76514826  0.94353633  1
