# generated using pymatgen
data_Cd(HO)2
_symmetry_space_group_name_H-M   'P 1'
_cell_length_a   6.12707990
_cell_length_b   6.14412738
_cell_length_c   6.23960156
_cell_angle_alpha   124.50538999
_cell_angle_beta   65.77789941
_cell_angle_gamma   146.80194424
_symmetry_Int_Tables_number   1
_chemical_formula_structural   Cd(HO)2
_chemical_formula_sum   'Cd2 H4 O4'
_cell_volume   104.92272568
_cell_formula_units_Z   2
loop_
 _symmetry_equiv_pos_site_id
 _symmetry_equiv_pos_as_xyz
  1  'x, y, z'
loop_
 _atom_site_type_symbol
 _atom_site_label
 _atom_site_symmetry_multiplicity
 _atom_site_fract_x
 _atom_site_fract_y
 _atom_site_fract_z
 _atom_site_occupancy
  Cd  Cd0  1  0.85649338  0.01589556  0.84515114  1
  Cd  Cd1  1  0.16226987  0.02128116  0.15753408  1
  H  H2  1  0.51493786  0.81704441  0.27473008  1
  H  H3  1  0.35431068  0.04159358  0.69245124  1
  H  H4  1  0.16023245  0.50564949  0.62696469  1
  H  H5  1  0.87251315  0.50066934  0.33677851  1
  O  O6  1  0.52535529  0.65084303  0.11335241  1
  O  O7  1  0.07481256  0.76448889  0.69488685  1
  O  O8  1  0.23445291  0.39866693  0.60255789  1
  O  O9  1  0.79118785  0.40279960  0.16371411  1
