# generated using pymatgen
data_Li3CrBO5
_symmetry_space_group_name_H-M   'P 1'
_cell_length_a   4.72810449
_cell_length_b   4.86598548
_cell_length_c   16.26852399
_cell_angle_alpha   90.00000000
_cell_angle_beta   90.00000000
_cell_angle_gamma   90.00000000
_symmetry_Int_Tables_number   1
_chemical_formula_structural   Li3CrBO5
_chemical_formula_sum   'Li12 Cr4 B4 O20'
_cell_volume   374.28810605
_cell_formula_units_Z   4
loop_
 _symmetry_equiv_pos_site_id
 _symmetry_equiv_pos_as_xyz
  1  'x, y, z'
loop_
 _atom_site_type_symbol
 _atom_site_label
 _atom_site_symmetry_multiplicity
 _atom_site_fract_x
 _atom_site_fract_y
 _atom_site_fract_z
 _atom_site_occupancy
  Li  Li0  1  0.00911138  0.69926630  0.61228575  1
  Li  Li1  1  0.00911138  0.19926630  0.88771425  1
  Li  Li2  1  0.50937272  0.32088102  0.00566916  1
  Li  Li3  1  0.50937272  0.82088102  0.49433084  1
  Li  Li4  1  0.49838732  0.34210852  0.79189385  1
  Li  Li5  1  0.49838732  0.84210852  0.70810615  1
  Li  Li6  1  0.50911138  0.30073370  0.38771425  1
  Li  Li7  1  0.50911138  0.80073370  0.11228575  1
  Li  Li8  1  0.00937272  0.67911898  0.99433084  1
  Li  Li9  1  0.00937272  0.17911898  0.50566916  1
  Li  Li10  1  0.99838732  0.15789148  0.29189385  1
  Li  Li11  1  0.99838732  0.65789148  0.20810615  1
  Cr  Cr12  1  0.01101534  0.17010857  0.10317700  1
  Cr  Cr13  1  0.01101534  0.67010857  0.39682300  1
  Cr  Cr14  1  0.51101534  0.32989143  0.60317700  1
  Cr  Cr15  1  0.51101534  0.82989143  0.89682300  1
  B  B16  1  0.99629525  0.18908967  0.70750601  1
  B  B17  1  0.99629525  0.68908967  0.79249399  1
  B  B18  1  0.49629525  0.31091033  0.20750601  1
  B  B19  1  0.49629525  0.81091033  0.29249399  1
  O  O20  1  0.08939754  0.39068482  0.77405750  1
  O  O21  1  0.08939754  0.89068482  0.72594250  1
  O  O22  1  0.08192443  0.31922239  0.39453598  1
  O  O23  1  0.08192443  0.81922239  0.10546402  1
  O  O24  1  0.09010981  0.29247462  0.00535366  1
  O  O25  1  0.09010981  0.79247462  0.49464634  1
  O  O26  1  0.18516917  0.31055705  0.19733185  1
  O  O27  1  0.18516917  0.81055705  0.30266815  1
  O  O28  1  0.12421705  0.27314436  0.62686245  1
  O  O29  1  0.12421705  0.77314436  0.87313755  1
  O  O30  1  0.58939754  0.60931518  0.22594250  1
  O  O31  1  0.58939754  0.10931518  0.27405750  1
  O  O32  1  0.58192443  0.68077761  0.60546402  1
  O  O33  1  0.58192443  0.18077761  0.89453598  1
  O  O34  1  0.59010981  0.20752538  0.50535366  1
  O  O35  1  0.59010981  0.70752538  0.99464634  1
  O  O36  1  0.68516917  0.18944295  0.69733185  1
  O  O37  1  0.68516917  0.68944295  0.80266815  1
  O  O38  1  0.62421705  0.22685564  0.12686245  1
  O  O39  1  0.62421705  0.72685564  0.37313755  1
