# generated using pymatgen
data_Tb5AgS8
_symmetry_space_group_name_H-M   'P 1'
_cell_length_a   7.24185525
_cell_length_b   7.24185482
_cell_length_c   7.24185544
_cell_angle_alpha   109.63078054
_cell_angle_beta   109.63077738
_cell_angle_gamma   109.15256802
_symmetry_Int_Tables_number   1
_chemical_formula_structural   Tb5AgS8
_chemical_formula_sum   'Tb5 Ag1 S8'
_cell_volume   292.35974476
_cell_formula_units_Z   1
loop_
 _symmetry_equiv_pos_site_id
 _symmetry_equiv_pos_as_xyz
  1  'x, y, z'
loop_
 _atom_site_type_symbol
 _atom_site_label
 _atom_site_symmetry_multiplicity
 _atom_site_fract_x
 _atom_site_fract_y
 _atom_site_fract_z
 _atom_site_occupancy
  Ag  Ag0  1  0.87500000  0.12500000  0.75000000  1
  S  S1  1  0.99525908  0.85341125  0.49783440  1
  S  S2  1  0.00670200  0.36764614  0.49070051  1
  S  S3  1  0.48399851  0.99329800  0.86094414  1
  S  S4  1  0.14658875  0.14442315  0.14184783  1
  S  S5  1  0.50257532  0.00474092  0.35815217  1
  S  S6  1  0.37694564  0.51600149  0.00929949  1
  S  S7  1  0.63235386  0.62305436  0.63905586  1
  S  S8  1  0.85557685  0.49742468  0.00216560  1
  Tb  Tb9  1  0.11034224  0.74632840  0.86888178  1
  Tb  Tb10  1  0.25367160  0.62255338  0.36401385  1
  Tb  Tb11  1  0.37744662  0.24146047  0.63111822  1
  Tb  Tb12  1  0.62500000  0.37500000  0.25000000  1
  Tb  Tb13  1  0.75853953  0.88965776  0.13598615  1
