# generated using pymatgen
data_SiO2
_symmetry_space_group_name_H-M   'P 1'
_cell_length_a   5.11937230
_cell_length_b   11.29919792
_cell_length_c   11.29919793
_cell_angle_alpha   103.02140863
_cell_angle_beta   90.00000000
_cell_angle_gamma   90.00000000
_symmetry_Int_Tables_number   1
_chemical_formula_structural   SiO2
_chemical_formula_sum   'Si12 O24'
_cell_volume   636.79315028
_cell_formula_units_Z   12
loop_
 _symmetry_equiv_pos_site_id
 _symmetry_equiv_pos_as_xyz
  1  'x, y, z'
loop_
 _atom_site_type_symbol
 _atom_site_label
 _atom_site_symmetry_multiplicity
 _atom_site_fract_x
 _atom_site_fract_y
 _atom_site_fract_z
 _atom_site_occupancy
  O  O0  1  0.47519946  0.10722191  0.35006107  1
  O  O1  1  0.97519946  0.89277809  0.64993893  1
  O  O2  1  0.47519946  0.64993893  0.89277809  1
  O  O3  1  0.97519946  0.35006107  0.10722191  1
  O  O4  1  0.94099452  0.66353651  0.52255452  1
  O  O5  1  0.44099452  0.33646349  0.47744548  1
  O  O6  1  0.94099452  0.47744548  0.33646349  1
  O  O7  1  0.44099452  0.52255452  0.66353651  1
  O  O8  1  0.09446054  0.69367929  0.30632071  1
  O  O9  1  0.59446054  0.30632071  0.69367929  1
  O  O10  1  0.43468155  0.87138889  0.31493922  1
  O  O11  1  0.93468155  0.12861111  0.68506078  1
  O  O12  1  0.09420356  0.34545806  0.65454194  1
  O  O13  1  0.59420356  0.65454194  0.34545806  1
  O  O14  1  0.28214924  0.47200013  0.98761276  1
  O  O15  1  0.78214924  0.52799987  0.01238724  1
  O  O16  1  0.28214924  0.01238724  0.52799987  1
  O  O17  1  0.78214924  0.98761276  0.47200013  1
  O  O18  1  0.12265692  0.71014362  0.74713857  1
  O  O19  1  0.62265692  0.28985638  0.25286143  1
  O  O20  1  0.12265692  0.25286143  0.28985638  1
  O  O21  1  0.62265692  0.74713857  0.71014362  1
  O  O22  1  0.93468155  0.31493922  0.87138889  1
  O  O23  1  0.43468155  0.68506078  0.12861111  1
  Si  Si24  1  0.49079212  0.99471758  0.41677789  1
  Si  Si25  1  0.99079212  0.00528242  0.58322211  1
  Si  Si26  1  0.49079212  0.58322211  0.00528242  1
  Si  Si27  1  0.99079212  0.41677789  0.99471758  1
  Si  Si28  1  0.91544005  0.75358860  0.65641231  1
  Si  Si29  1  0.41544005  0.24641140  0.34358769  1
  Si  Si30  1  0.91544005  0.34358769  0.24641140  1
  Si  Si31  1  0.41544005  0.65641231  0.75358860  1
  Si  Si32  1  0.39211656  0.72581999  0.27418001  1
  Si  Si33  1  0.89211656  0.27418001  0.72581999  1
  Si  Si34  1  0.89259162  0.62264526  0.37735474  1
  Si  Si35  1  0.39259162  0.37735474  0.62264526  1
