# generated using pymatgen
data_NaY2F7
_symmetry_space_group_name_H-M   'P 1'
_cell_length_a   3.98556075
_cell_length_b   3.98557967
_cell_length_c   13.47014083
_cell_angle_alpha   54.27897471
_cell_angle_beta   63.83018559
_cell_angle_gamma   60.05818741
_symmetry_Int_Tables_number   1
_chemical_formula_structural   NaY2F7
_chemical_formula_sum   'Na1 Y2 F7'
_cell_volume   147.08633679
_cell_formula_units_Z   1
loop_
 _symmetry_equiv_pos_site_id
 _symmetry_equiv_pos_as_xyz
  1  'x, y, z'
loop_
 _atom_site_type_symbol
 _atom_site_label
 _atom_site_symmetry_multiplicity
 _atom_site_fract_x
 _atom_site_fract_y
 _atom_site_fract_z
 _atom_site_occupancy
  Na  Na0  1  0.98931586  0.00682137  0.65964200  1
  Y  Y1  1  0.10909024  0.88715611  0.95224618  1
  Y  Y2  1  0.85692510  0.12725772  0.36668349  1
  F  F3  1  0.41533859  0.14905176  0.99399441  1
  F  F4  1  0.15666596  0.38300976  0.41558220  1
  F  F5  1  0.97877551  0.50695206  0.15942471  1
  F  F6  1  0.55045674  0.86552896  0.32482388  1
  F  F7  1  0.25223476  0.19895059  0.75208272  1
  F  F8  1  0.71745535  0.81586314  0.56681640  1
  F  F9  1  0.80974089  0.63140653  0.90337100  1
