# generated using pymatgen
data_Ag2O3
_symmetry_space_group_name_H-M   'P 1'
_cell_length_a   3.78296026
_cell_length_b   5.67207077
_cell_length_c   6.83801065
_cell_angle_alpha   84.71447358
_cell_angle_beta   73.93661216
_cell_angle_gamma   70.52393560
_symmetry_Int_Tables_number   1
_chemical_formula_structural   Ag2O3
_chemical_formula_sum   'Ag4 O6'
_cell_volume   132.92832136
_cell_formula_units_Z   2
loop_
 _symmetry_equiv_pos_site_id
 _symmetry_equiv_pos_as_xyz
  1  'x, y, z'
loop_
 _atom_site_type_symbol
 _atom_site_label
 _atom_site_symmetry_multiplicity
 _atom_site_fract_x
 _atom_site_fract_y
 _atom_site_fract_z
 _atom_site_occupancy
  O  O0  1  0.78333748  0.03358749  0.66445460  1
  O  O1  1  0.06678641  0.46635032  0.16446225  1
  O  O2  1  0.69773352  0.53370186  0.83552556  1
  O  O3  1  0.41540228  0.49996608  0.49999902  1
  O  O4  1  0.48132793  0.96636466  0.33553872  1
  Ag  Ag5  1  0.58543321  0.73410508  0.09396492  1
  Ag  Ag6  1  0.56968745  0.76593175  0.59393280  1
  O  O7  1  0.16524791  0.00006029  0.99997852  1
  Ag  Ag8  1  0.92957937  0.23405130  0.40604874  1
  Ag  Ag9  1  0.41386446  0.26588118  0.90609487  1
