# generated using pymatgen
data_Li3Cu3(PO4)2
_symmetry_space_group_name_H-M   'P 1'
_cell_length_a   6.23484859
_cell_length_b   5.45820486
_cell_length_c   5.12094567
_cell_angle_alpha   90.64096559
_cell_angle_beta   90.73735052
_cell_angle_gamma   88.14540041
_symmetry_Int_Tables_number   1
_chemical_formula_structural   Li3Cu3(PO4)2
_chemical_formula_sum   'Li3 Cu3 P2 O8'
_cell_volume   174.15549105
_cell_formula_units_Z   1
loop_
 _symmetry_equiv_pos_site_id
 _symmetry_equiv_pos_as_xyz
  1  'x, y, z'
loop_
 _atom_site_type_symbol
 _atom_site_label
 _atom_site_symmetry_multiplicity
 _atom_site_fract_x
 _atom_site_fract_y
 _atom_site_fract_z
 _atom_site_occupancy
  Li  Li0  1  0.00234050  0.15655448  0.49961801  1
  Li  Li1  1  0.24965777  0.33202475  0.00416468  1
  Li  Li2  1  0.25343538  0.67512062  0.50036426  1
  Cu  Cu3  1  0.51528557  0.76424110  0.98897359  1
  Cu  Cu4  1  0.72254157  0.65251639  0.45504606  1
  Cu  Cu5  1  0.72986625  0.34978914  0.01333733  1
  P  P6  1  0.01316711  0.84144082  0.99721351  1
  P  P7  1  0.49063488  0.17946245  0.50395033  1
  O  O8  1  0.01418211  0.10825267  0.89380510  1
  O  O9  1  0.00815308  0.83583763  0.30048766  1
  O  O10  1  0.21399178  0.68944452  0.89453129  1
  O  O11  1  0.28983720  0.32303370  0.39330199  1
  O  O12  1  0.48969373  0.18689931  0.80645419  1
  O  O13  1  0.48341614  0.90909045  0.40440473  1
  O  O14  1  0.70841124  0.28937386  0.41035693  1
  O  O15  1  0.81538569  0.70691710  0.87658334  1
