# generated using pymatgen
data_Li3Fe2(SiO4)2
_symmetry_space_group_name_H-M   'P 1'
_cell_length_a   5.31562266
_cell_length_b   5.03299537
_cell_length_c   6.72296038
_cell_angle_alpha   89.18234559
_cell_angle_beta   88.72616263
_cell_angle_gamma   90.22411991
_symmetry_Int_Tables_number   1
_chemical_formula_structural   Li3Fe2(SiO4)2
_chemical_formula_sum   'Li3 Fe2 Si2 O8'
_cell_volume   179.79837950
_cell_formula_units_Z   1
loop_
 _symmetry_equiv_pos_site_id
 _symmetry_equiv_pos_as_xyz
  1  'x, y, z'
loop_
 _atom_site_type_symbol
 _atom_site_label
 _atom_site_symmetry_multiplicity
 _atom_site_fract_x
 _atom_site_fract_y
 _atom_site_fract_z
 _atom_site_occupancy
  Li  Li0  1  0.16002365  0.49093106  0.49130620  1
  Li  Li1  1  0.64945266  0.49388246  0.71051049  1
  Li  Li2  1  0.84359376  0.99449349  0.49073515  1
  Fe  Fe3  1  0.18387191  0.49629120  0.01128434  1
  Fe  Fe4  1  0.79753779  0.01347722  0.99793593  1
  Si  Si5  1  0.32086858  0.00479587  0.74087914  1
  Si  Si6  1  0.68113232  0.48396638  0.26263809  1
  O  O7  1  0.17535922  0.11120756  0.55128957  1
  O  O8  1  0.17978209  0.12468122  0.94892242  1
  O  O9  1  0.30822242  0.67128075  0.77137551  1
  O  O10  1  0.38006969  0.55808625  0.23457412  1
  O  O11  1  0.62028376  0.09618421  0.74730023  1
  O  O12  1  0.72955142  0.16601045  0.25545633  1
  O  O13  1  0.83333112  0.60205501  0.04997249  1
  O  O14  1  0.79781963  0.60903685  0.46111000  1
