# generated using pymatgen
data_LiFeO2
_symmetry_space_group_name_H-M   'P 1'
_cell_length_a   4.11832536
_cell_length_b   4.11833139
_cell_length_c   5.27613291
_cell_angle_alpha   112.97323924
_cell_angle_beta   112.97336324
_cell_angle_gamma   89.99823249
_symmetry_Int_Tables_number   1
_chemical_formula_structural   LiFeO2
_chemical_formula_sum   'Li2 Fe2 O4'
_cell_volume   74.62006288
_cell_formula_units_Z   2
loop_
 _symmetry_equiv_pos_site_id
 _symmetry_equiv_pos_as_xyz
  1  'x, y, z'
loop_
 _atom_site_type_symbol
 _atom_site_label
 _atom_site_symmetry_multiplicity
 _atom_site_fract_x
 _atom_site_fract_y
 _atom_site_fract_z
 _atom_site_occupancy
  Li  Li0  1  0.87499221  0.12500840  0.74999760  1
  Li  Li1  1  0.12500816  0.87499105  0.24999915  1
  O  O2  1  0.14365521  0.39364229  0.28729759  1
  O  O3  1  0.39364372  0.14365633  0.78729724  1
  O  O4  1  0.85634643  0.60636007  0.71270458  1
  O  O5  1  0.60636016  0.85634513  0.21270531  1
  Fe  Fe6  1  0.62499668  0.37499509  0.25000019  1
  Fe  Fe7  1  0.37499941  0.62500274  0.75000098  1
