# generated using pymatgen
data_Li2Fe3O3F5
_symmetry_space_group_name_H-M   'P 1'
_cell_length_a   6.01598591
_cell_length_b   6.01539860
_cell_length_c   5.99901070
_cell_angle_alpha   118.91792309
_cell_angle_beta   89.65850553
_cell_angle_gamma   59.20275951
_symmetry_Int_Tables_number   1
_chemical_formula_structural   Li2Fe3O3F5
_chemical_formula_sum   'Li2 Fe3 O3 F5'
_cell_volume   153.66944451
_cell_formula_units_Z   1
loop_
 _symmetry_equiv_pos_site_id
 _symmetry_equiv_pos_as_xyz
  1  'x, y, z'
loop_
 _atom_site_type_symbol
 _atom_site_label
 _atom_site_symmetry_multiplicity
 _atom_site_fract_x
 _atom_site_fract_y
 _atom_site_fract_z
 _atom_site_occupancy
  Li  Li0  1  0.88009137  0.74758870  0.38261987  1
  Li  Li1  1  0.36493419  0.26276209  0.38268115  1
  Fe  Fe2  1  0.36258096  0.76238127  0.39985852  1
  Fe  Fe3  1  0.74947325  0.47834076  0.72885135  1
  Fe  Fe4  1  0.38203007  0.24349057  0.86143741  1
  O  O5  1  0.60537115  0.76566539  0.61926853  1
  O  O6  1  0.61170641  0.24473539  0.63285912  1
  O  O7  1  0.14637769  0.22470079  0.61936918  1
  F  F8  1  0.61752347  0.74930857  0.13191594  1
  F  F9  1  0.15099019  0.72567081  0.13848580  1
  F  F10  1  0.13864126  0.72505756  0.58619075  1
  F  F11  1  0.15307264  0.28094216  0.12805936  1
  F  F12  1  0.58720534  0.28935594  0.13840201  1
