# generated using pymatgen
data_AlInSe3
_symmetry_space_group_name_H-M   'P 1'
_cell_length_a   7.10854864
_cell_length_b   7.10854745
_cell_length_c   19.01738769
_cell_angle_alpha   90.00000000
_cell_angle_beta   90.00000000
_cell_angle_gamma   120.00000275
_symmetry_Int_Tables_number   1
_chemical_formula_structural   AlInSe3
_chemical_formula_sum   'Al6 In6 Se18'
_cell_volume   832.22984449
_cell_formula_units_Z   6
loop_
 _symmetry_equiv_pos_site_id
 _symmetry_equiv_pos_as_xyz
  1  'x, y, z'
loop_
 _atom_site_type_symbol
 _atom_site_label
 _atom_site_symmetry_multiplicity
 _atom_site_fract_x
 _atom_site_fract_y
 _atom_site_fract_z
 _atom_site_occupancy
  Al  Al0  1  0.32625338  0.01444097  0.19131817  1
  Al  Al1  1  0.67374662  0.98556103  0.69131817  1
  Al  Al2  1  0.98556103  0.31181342  0.52465117  1
  Al  Al3  1  0.68818658  0.67374762  0.85798517  1
  Al  Al4  1  0.31181242  0.32625238  0.35798517  1
  Al  Al5  1  0.01443897  0.68818658  0.02465217  1
  In  In6  1  0.99118132  0.33053341  0.16311799  1
  In  In7  1  0.00881968  0.66946859  0.66311799  1
  In  In8  1  0.66946859  0.66064992  0.49645099  1
  In  In9  1  0.33935108  0.00881868  0.82978499  1
  In  In10  1  0.66064892  0.99118132  0.32978499  1
  In  In11  1  0.33053141  0.33935008  0.99645199  1
  Se  Se12  1  0.37195492  0.04626748  0.67847399  1
  Se  Se13  1  0.62804508  0.95373152  0.17847399  1
  Se  Se14  1  0.95373052  0.32568644  0.01180799  1
  Se  Se15  1  0.67431356  0.62804608  0.34514099  1
  Se  Se16  1  0.32568544  0.37195392  0.84514099  1
  Se  Se17  1  0.04626848  0.67431356  0.51180699  1
  Se  Se18  1  0.27730508  0.98360625  0.31909298  1
  Se  Se19  1  0.72269392  0.01639375  0.81909298  1
  Se  Se20  1  0.01639375  0.29369983  0.65242598  1
  Se  Se21  1  0.70629917  0.72269292  0.98575998  1
  Se  Se22  1  0.29369983  0.27730708  0.48575998  1
  Se  Se23  1  0.98360525  0.70630017  0.15242698  1
  Se  Se24  1  0.02122835  0.37188419  0.31399688  1
  Se  Se25  1  0.97877265  0.62811781  0.81399588  1
  Se  Se26  1  0.62811781  0.64934516  0.64732888  1
  Se  Se27  1  0.35065584  0.97877365  0.98066288  1
  Se  Se28  1  0.64934516  0.02122835  0.48066288  1
  Se  Se29  1  0.37188319  0.35065584  0.14732988  1
