# generated using pymatgen
data_NaNb6O15F
_symmetry_space_group_name_H-M   'P 1'
_cell_length_a   3.95245120
_cell_length_b   9.14351125
_cell_length_c   9.14351124
_cell_angle_alpha   109.84196408
_cell_angle_beta   90.00000000
_cell_angle_gamma   90.00000000
_symmetry_Int_Tables_number   1
_chemical_formula_structural   NaNb6O15F
_chemical_formula_sum   'Na1 Nb6 O15 F1'
_cell_volume   310.82251279
_cell_formula_units_Z   1
loop_
 _symmetry_equiv_pos_site_id
 _symmetry_equiv_pos_as_xyz
  1  'x, y, z'
loop_
 _atom_site_type_symbol
 _atom_site_label
 _atom_site_symmetry_multiplicity
 _atom_site_fract_x
 _atom_site_fract_y
 _atom_site_fract_z
 _atom_site_occupancy
  O  O0  1  0.50000000  0.63915946  0.00941841  1
  O  O1  1  0.00000000  0.51323051  0.48676949  1
  O  O2  1  0.00000000  0.86308721  0.13691279  1
  O  O3  1  0.00000000  0.53174137  0.16583872  1
  O  O4  1  0.00000000  0.83416128  0.46825863  1
  O  O5  1  0.00000000  0.76889490  0.85686854  1
  O  O6  1  0.00000000  0.14313146  0.23110510  1
  O  O7  1  0.50000000  0.22226003  0.77773997  1
  O  O8  1  0.50000000  0.71613785  0.63580422  1
  O  O9  1  0.50000000  0.36419578  0.28386215  1
  O  O10  1  0.50000000  0.99058159  0.36084054  1
  O  O11  1  0.00000000  0.18018150  0.55395494  1
  O  O12  1  0.00000000  0.99007085  0.77243915  1
  O  O13  1  0.00000000  0.22756085  0.00992915  1
  O  O14  1  0.00000000  0.44604506  0.81981850  1
  F  F15  1  0.50000000  0.99991344  0.00008656  1
  Na  Na16  1  0.50000000  0.40433137  0.59566863  1
  Nb  Nb17  1  0.00000000  0.99454078  0.37230823  1
  Nb  Nb18  1  0.00000000  0.37752144  0.26327056  1
  Nb  Nb19  1  0.00000000  0.73672944  0.62247856  1
  Nb  Nb20  1  0.00000000  0.21764103  0.78235897  1
  Nb  Nb21  1  0.00000000  0.99919103  0.00080897  1
  Nb  Nb22  1  0.00000000  0.62769177  0.00545922  1
