# generated using pymatgen
data_SrCO3
_symmetry_space_group_name_H-M   'P 1'
_cell_length_a   4.37156321
_cell_length_b   4.37156273
_cell_length_c   8.37043777
_cell_angle_alpha   71.76304336
_cell_angle_beta   71.76304470
_cell_angle_gamma   72.89890903
_symmetry_Int_Tables_number   1
_chemical_formula_structural   SrCO3
_chemical_formula_sum   'Sr2 C2 O6'
_cell_volume   140.84582452
_cell_formula_units_Z   2
loop_
 _symmetry_equiv_pos_site_id
 _symmetry_equiv_pos_as_xyz
  1  'x, y, z'
loop_
 _atom_site_type_symbol
 _atom_site_label
 _atom_site_symmetry_multiplicity
 _atom_site_fract_x
 _atom_site_fract_y
 _atom_site_fract_z
 _atom_site_occupancy
  C  C0  1  0.03439974  0.03439974  0.51757672  1
  C  C1  1  0.96560026  0.96560026  0.98242328  1
  O  O2  1  0.09723610  0.66384691  0.05373154  1
  O  O3  1  0.12596449  0.12596449  0.83968231  1
  O  O4  1  0.66384691  0.09723610  0.05373154  1
  O  O5  1  0.33615309  0.90276390  0.44626846  1
  O  O6  1  0.90276390  0.33615309  0.44626846  1
  O  O7  1  0.87403551  0.87403551  0.66031769  1
  Sr  Sr8  1  0.50000000  0.50000000  0.25000000  1
  Sr  Sr9  1  0.50000000  0.50000000  0.75000000  1
