# generated using pymatgen
data_Zr2N2O
_symmetry_space_group_name_H-M   'P 1'
_cell_length_a   3.50637729
_cell_length_b   10.94084235
_cell_length_c   6.74049356
_cell_angle_alpha   88.05276909
_cell_angle_beta   105.07575454
_cell_angle_gamma   80.78877759
_symmetry_Int_Tables_number   1
_chemical_formula_structural   Zr2N2O
_chemical_formula_sum   'Zr8 N8 O4'
_cell_volume   245.68745922
_cell_formula_units_Z   4
loop_
 _symmetry_equiv_pos_site_id
 _symmetry_equiv_pos_as_xyz
  1  'x, y, z'
loop_
 _atom_site_type_symbol
 _atom_site_label
 _atom_site_symmetry_multiplicity
 _atom_site_fract_x
 _atom_site_fract_y
 _atom_site_fract_z
 _atom_site_occupancy
  Zr  Zr0  1  0.98071958  0.65049787  0.61224594  1
  Zr  Zr1  1  0.72612224  0.39284169  0.84504351  1
  Zr  Zr2  1  0.51855692  0.85020450  0.88720495  1
  Zr  Zr3  1  0.22301048  0.90031622  0.34640537  1
  Zr  Zr4  1  0.27841681  0.59657021  0.15345568  1
  Zr  Zr5  1  0.76461879  0.11208974  0.64123646  1
  Zr  Zr6  1  0.48455126  0.13799334  0.10706184  1
  Zr  Zr7  1  0.02059253  0.35608945  0.39718215  1
  N  N8  1  0.82415613  0.49116154  0.13945714  1
  N  N9  1  0.57285584  0.24453862  0.39012415  1
  N  N10  1  0.67851803  0.00354363  0.36064523  1
  N  N11  1  0.41676897  0.76102367  0.59471597  1
  N  N12  1  0.50531239  0.50014277  0.51043635  1
  N  N13  1  0.08454710  0.74049584  0.90957051  1
  N  N14  1  0.24954927  0.25316441  0.75235375  1
  N  N15  1  0.99877140  0.00434649  0.00204871  1
  O  O16  1  0.92112648  0.25418384  0.09636035  1
  O  O17  1  0.75212089  0.74775858  0.25196348  1
  O  O18  1  0.32635091  0.99901596  0.65168096  1
  O  O19  1  0.17341496  0.50402162  0.85080753  1
