# generated using pymatgen
data_Cs2Ti(PO4)2
_symmetry_space_group_name_H-M   'P 1'
_cell_length_a   7.36267754
_cell_length_b   9.48403238
_cell_length_c   14.03609621
_cell_angle_alpha   90.00000000
_cell_angle_beta   90.00000000
_cell_angle_gamma   90.00000000
_symmetry_Int_Tables_number   1
_chemical_formula_structural   Cs2Ti(PO4)2
_chemical_formula_sum   'Cs8 Ti4 P8 O32'
_cell_volume   980.11073224
_cell_formula_units_Z   4
loop_
 _symmetry_equiv_pos_site_id
 _symmetry_equiv_pos_as_xyz
  1  'x, y, z'
loop_
 _atom_site_type_symbol
 _atom_site_label
 _atom_site_symmetry_multiplicity
 _atom_site_fract_x
 _atom_site_fract_y
 _atom_site_fract_z
 _atom_site_occupancy
  O  O0  1  0.06361425  0.66596170  0.28721798  1
  O  O1  1  0.56361425  0.83403830  0.71278202  1
  O  O2  1  0.93638575  0.16596170  0.21278202  1
  O  O3  1  0.43638575  0.33403830  0.78721798  1
  O  O4  1  0.90068645  0.43280202  0.28135045  1
  O  O5  1  0.40068645  0.06719798  0.71864955  1
  O  O6  1  0.09931355  0.93280202  0.21864955  1
  O  O7  1  0.59931355  0.56719798  0.78135045  1
  O  O8  1  0.30978742  0.30080952  0.59208470  1
  O  O9  1  0.80978742  0.19919048  0.40791530  1
  O  O10  1  0.69021258  0.80080952  0.90791530  1
  O  O11  1  0.19021258  0.69919048  0.09208470  1
  O  O12  1  0.96224841  0.55394565  0.44289677  1
  O  O13  1  0.46224841  0.94605435  0.55710323  1
  O  O14  1  0.03775159  0.05394565  0.05710323  1
  O  O15  1  0.53775159  0.44605435  0.94289677  1
  O  O16  1  0.21797328  0.44102314  0.34437604  1
  O  O17  1  0.71797328  0.05897686  0.65562396  1
  O  O18  1  0.78202672  0.94102314  0.15562396  1
  O  O19  1  0.28202672  0.55897686  0.84437604  1
  O  O20  1  0.53332167  0.37377465  0.31159748  1
  O  O21  1  0.03332167  0.12622535  0.68840252  1
  O  O22  1  0.46667833  0.87377465  0.18840252  1
  O  O23  1  0.96667833  0.62622535  0.81159748  1
  O  O24  1  0.47575164  0.58104208  0.42657566  1
  O  O25  1  0.97575164  0.91895792  0.57342434  1
  O  O26  1  0.52424836  0.08104208  0.07342434  1
  O  O27  1  0.02424836  0.41895792  0.92657566  1
  O  O28  1  0.58334620  0.10371912  0.25350358  1
  O  O29  1  0.08334620  0.39628088  0.74649642  1
  O  O30  1  0.41665380  0.60371912  0.24649642  1
  O  O31  1  0.91665380  0.89628088  0.75350358  1
  P  P32  1  0.02550500  0.52773443  0.34288136  1
  P  P33  1  0.52550500  0.97226557  0.65711864  1
  P  P34  1  0.97449500  0.02773443  0.15711864  1
  P  P35  1  0.47449500  0.47226557  0.84288136  1
  P  P36  1  0.92398587  0.99246526  0.66412344  1
  P  P37  1  0.42398587  0.50753474  0.33587656  1
  P  P38  1  0.07601413  0.49246526  0.83587656  1
  P  P39  1  0.57601413  0.00753474  0.16412344  1
  Ti  Ti40  1  0.74539158  0.74368602  0.79893352  1
  Ti  Ti41  1  0.24539158  0.75631398  0.20106648  1
  Ti  Ti42  1  0.25460842  0.24368602  0.70106648  1
  Ti  Ti43  1  0.75460842  0.25631398  0.29893352  1
  Cs  Cs44  1  0.77474901  0.61545656  0.07946537  1
  Cs  Cs45  1  0.27474901  0.88454344  0.92053463  1
  Cs  Cs46  1  0.22525099  0.11545656  0.42053463  1
  Cs  Cs47  1  0.72525099  0.38454344  0.57946537  1
  Cs  Cs48  1  0.26502585  0.34269944  0.09503021  1
  Cs  Cs49  1  0.76502585  0.15730056  0.90496979  1
  Cs  Cs50  1  0.73497415  0.84269944  0.40496979  1
  Cs  Cs51  1  0.23497415  0.65730056  0.59503021  1
