# generated using pymatgen
data_Ca3GaN3
_symmetry_space_group_name_H-M   'P 1'
_cell_length_a   7.20683881
_cell_length_b   7.20683886
_cell_length_c   5.08654306
_cell_angle_alpha   90.00000000
_cell_angle_beta   90.00000000
_cell_angle_gamma   120.00006411
_symmetry_Int_Tables_number   1
_chemical_formula_structural   Ca3GaN3
_chemical_formula_sum   'Ca6 Ga2 N6'
_cell_volume   228.79298106
_cell_formula_units_Z   2
loop_
 _symmetry_equiv_pos_site_id
 _symmetry_equiv_pos_as_xyz
  1  'x, y, z'
loop_
 _atom_site_type_symbol
 _atom_site_label
 _atom_site_symmetry_multiplicity
 _atom_site_fract_x
 _atom_site_fract_y
 _atom_site_fract_z
 _atom_site_occupancy
  Ca  Ca0  1  0.93122727  0.64883854  0.25000000  1
  Ca  Ca1  1  0.71761536  0.06877424  0.25000000  1
  Ca  Ca2  1  0.35115950  0.28238792  0.25000000  1
  Ca  Ca3  1  0.06877273  0.35116146  0.75000000  1
  Ca  Ca4  1  0.28238464  0.93122576  0.75000000  1
  Ca  Ca5  1  0.64884050  0.71761208  0.75000000  1
  Ga  Ga6  1  0.66666412  0.33333147  0.75000000  1
  Ga  Ga7  1  0.33333588  0.66666853  0.25000000  1
  N  N8  1  0.91751094  0.61159164  0.75000000  1
  N  N9  1  0.69407963  0.08248754  0.75000000  1
  N  N10  1  0.38840493  0.30591823  0.75000000  1
  N  N11  1  0.08248906  0.38840836  0.25000000  1
  N  N12  1  0.30592037  0.91751246  0.25000000  1
  N  N13  1  0.61159507  0.69408177  0.25000000  1
