# generated using pymatgen
data_RePbClO4
_symmetry_space_group_name_H-M   'P 1'
_cell_length_a   4.68451456
_cell_length_b   5.83482389
_cell_length_c   9.60144949
_cell_angle_alpha   90.00000000
_cell_angle_beta   90.00000000
_cell_angle_gamma   90.00000000
_symmetry_Int_Tables_number   1
_chemical_formula_structural   RePbClO4
_chemical_formula_sum   'Re2 Pb2 Cl2 O8'
_cell_volume   262.43946706
_cell_formula_units_Z   2
loop_
 _symmetry_equiv_pos_site_id
 _symmetry_equiv_pos_as_xyz
  1  'x, y, z'
loop_
 _atom_site_type_symbol
 _atom_site_label
 _atom_site_symmetry_multiplicity
 _atom_site_fract_x
 _atom_site_fract_y
 _atom_site_fract_z
 _atom_site_occupancy
  Re  Re0  1  0.24253841  0.00000000  0.13243941  1
  Re  Re1  1  0.74253841  0.50000000  0.86756059  1
  Pb  Pb2  1  0.75417269  0.50000000  0.32406871  1
  Pb  Pb3  1  0.25417269  0.00000000  0.67593129  1
  Cl  Cl4  1  0.66842583  0.00000000  0.46715555  1
  Cl  Cl5  1  0.16842583  0.50000000  0.53284445  1
  O  O6  1  0.62958463  0.25014478  0.77960256  1
  O  O7  1  0.12958463  0.75014478  0.22039744  1
  O  O8  1  0.63173944  0.50000000  0.04169916  1
  O  O9  1  0.61326438  0.00000000  0.13341242  1
  O  O10  1  0.62958463  0.74985522  0.77960256  1
  O  O11  1  0.12958463  0.24985522  0.22039744  1
  O  O12  1  0.13173944  0.00000000  0.95830084  1
  O  O13  1  0.11326438  0.50000000  0.86658758  1
