# generated using pymatgen
data_Na2PH11O8
_symmetry_space_group_name_H-M   'P 1'
_cell_length_a   7.17338628
_cell_length_b   6.43871599
_cell_length_c   9.31049781
_cell_angle_alpha   90.00000000
_cell_angle_beta   90.00000000
_cell_angle_gamma   90.00000000
_symmetry_Int_Tables_number   1
_chemical_formula_structural   Na2PH11O8
_chemical_formula_sum   'Na4 P2 H22 O16'
_cell_volume   430.02765809
_cell_formula_units_Z   2
loop_
 _symmetry_equiv_pos_site_id
 _symmetry_equiv_pos_as_xyz
  1  'x, y, z'
loop_
 _atom_site_type_symbol
 _atom_site_label
 _atom_site_symmetry_multiplicity
 _atom_site_fract_x
 _atom_site_fract_y
 _atom_site_fract_z
 _atom_site_occupancy
  Na  Na0  1  0.50000000  0.50239621  0.84735439  1
  Na  Na1  1  0.00000000  0.49760379  0.34735439  1
  Na  Na2  1  0.50000000  0.46079383  0.27154896  1
  Na  Na3  1  0.00000000  0.53920617  0.77154896  1
  P  P4  1  0.50000000  0.85313363  0.50199531  1
  P  P5  1  0.00000000  0.14686637  0.00199531  1
  H  H6  1  0.50000000  0.89828462  0.35250827  1
  H  H7  1  0.00000000  0.10171538  0.85250827  1
  H  H8  1  0.71365550  0.21789810  0.64051677  1
  H  H9  1  0.28634450  0.21789810  0.64051677  1
  H  H10  1  0.78634450  0.78210190  0.14051677  1
  H  H11  1  0.21365550  0.78210190  0.14051677  1
  H  H12  1  0.66586419  0.45147042  0.60549016  1
  H  H13  1  0.33413581  0.45147042  0.60549016  1
  H  H14  1  0.83413581  0.54852958  0.10549016  1
  H  H15  1  0.16586419  0.54852958  0.10549016  1
  H  H16  1  0.88850437  0.81367967  0.54353221  1
  H  H17  1  0.11149563  0.81367967  0.54353221  1
  H  H18  1  0.61149563  0.18632033  0.04353221  1
  H  H19  1  0.38850437  0.18632033  0.04353221  1
  H  H20  1  0.70860577  0.85178853  0.74820285  1
  H  H21  1  0.29139423  0.85178853  0.74820285  1
  H  H22  1  0.79139423  0.14821147  0.24820285  1
  H  H23  1  0.20860577  0.14821147  0.24820285  1
  H  H24  1  0.74715068  0.86612531  0.91529393  1
  H  H25  1  0.25284932  0.86612531  0.91529393  1
  H  H26  1  0.75284932  0.13387469  0.41529393  1
  H  H27  1  0.24715068  0.13387469  0.41529393  1
  O  O28  1  0.50000000  0.61554046  0.51556487  1
  O  O29  1  0.00000000  0.38445954  0.01556487  1
  O  O30  1  0.67949613  0.95524367  0.56298039  1
  O  O31  1  0.32050387  0.95524367  0.56298039  1
  O  O32  1  0.82050387  0.04475633  0.06298039  1
  O  O33  1  0.17949613  0.04475633  0.06298039  1
  O  O34  1  0.73197035  0.36138850  0.67523058  1
  O  O35  1  0.26802965  0.36138850  0.67523058  1
  O  O36  1  0.76802965  0.63861150  0.17523058  1
  O  O37  1  0.23197035  0.63861150  0.17523058  1
  O  O38  1  0.00000000  0.72240318  0.54025923  1
  O  O39  1  0.50000000  0.27759682  0.04025923  1
  O  O40  1  0.73034104  0.76726086  0.83533760  1
  O  O41  1  0.26965896  0.76726086  0.83533760  1
  O  O42  1  0.76965896  0.23273914  0.33533760  1
  O  O43  1  0.23034104  0.23273914  0.33533760  1
