# generated using pymatgen
data_Na3ZnPCO7
_symmetry_space_group_name_H-M   'P 1'
_cell_length_a   8.99473981
_cell_length_b   5.31185925
_cell_length_c   6.60227773
_cell_angle_alpha   90.00000000
_cell_angle_beta   90.00000000
_cell_angle_gamma   90.94659431
_symmetry_Int_Tables_number   1
_chemical_formula_structural   Na3ZnPCO7
_chemical_formula_sum   'Na6 Zn2 P2 C2 O14'
_cell_volume   315.40580363
_cell_formula_units_Z   2
loop_
 _symmetry_equiv_pos_site_id
 _symmetry_equiv_pos_as_xyz
  1  'x, y, z'
loop_
 _atom_site_type_symbol
 _atom_site_label
 _atom_site_symmetry_multiplicity
 _atom_site_fract_x
 _atom_site_fract_y
 _atom_site_fract_z
 _atom_site_occupancy
  Na  Na0  1  0.00213766  0.00687597  0.48834758  1
  Na  Na1  1  0.16861871  0.44550741  0.19133592  1
  Na  Na2  1  0.48826241  0.49608925  0.49095703  1
  Na  Na3  1  0.51173759  0.50391075  0.99095703  1
  Na  Na4  1  0.83138129  0.55449259  0.69133592  1
  Na  Na5  1  0.99786234  0.99312403  0.98834758  1
  Zn  Zn6  1  0.29912104  0.01702992  0.74017097  1
  Zn  Zn7  1  0.70087896  0.98297008  0.24017097  1
  P  P8  1  0.34599381  0.98018707  0.23994949  1
  P  P9  1  0.65400619  0.01981293  0.73994949  1
  C  C10  1  0.15116194  0.49160383  0.74056998  1
  C  C11  1  0.84883806  0.50839617  0.24056998  1
  O  O12  1  0.04213087  0.32688139  0.74390590  1
  O  O13  1  0.11956035  0.73279461  0.74239055  1
  O  O14  1  0.25316899  0.06798841  0.05239498  1
  O  O15  1  0.25279951  0.06007452  0.42828327  1
  O  O16  1  0.28773479  0.42076649  0.73945119  1
  O  O17  1  0.37042919  0.69502597  0.23292417  1
  O  O18  1  0.49796243  0.12937551  0.24391896  1
  O  O19  1  0.50203757  0.87062449  0.74391896  1
  O  O20  1  0.62957081  0.30497403  0.73292417  1
  O  O21  1  0.71226521  0.57923351  0.23945119  1
  O  O22  1  0.74720049  0.93992548  0.92828327  1
  O  O23  1  0.74683101  0.93201159  0.55239498  1
  O  O24  1  0.88043965  0.26720539  0.24239055  1
  O  O25  1  0.95786913  0.67311861  0.24390590  1
