# generated using pymatgen
data_Li3BePCO7
_symmetry_space_group_name_H-M   'P 1'
_cell_length_a   8.15487524
_cell_length_b   4.78967212
_cell_length_c   6.84458468
_cell_angle_alpha   90.00000000
_cell_angle_beta   90.00000000
_cell_angle_gamma   89.86797942
_symmetry_Int_Tables_number   1
_chemical_formula_structural   Li3BePCO7
_chemical_formula_sum   'Li6 Be2 P2 C2 O14'
_cell_volume   267.34314577
_cell_formula_units_Z   2
loop_
 _symmetry_equiv_pos_site_id
 _symmetry_equiv_pos_as_xyz
  1  'x, y, z'
loop_
 _atom_site_type_symbol
 _atom_site_label
 _atom_site_symmetry_multiplicity
 _atom_site_fract_x
 _atom_site_fract_y
 _atom_site_fract_z
 _atom_site_occupancy
  Li  Li0  1  0.97960128  0.05224546  0.51921058  1
  Li  Li1  1  0.18137747  0.42305071  0.22631099  1
  Li  Li2  1  0.53934012  0.45668745  0.39297678  1
  Li  Li3  1  0.46065988  0.54331255  0.89297678  1
  Li  Li4  1  0.81862253  0.57694929  0.72631099  1
  Li  Li5  1  0.02039872  0.94775454  0.01921058  1
  Be  Be6  1  0.30091920  0.01626827  0.68870867  1
  Be  Be7  1  0.69908080  0.98373173  0.18870867  1
  P  P8  1  0.34620930  0.95955933  0.25835441  1
  P  P9  1  0.65379070  0.04044067  0.75835441  1
  C  C10  1  0.14922805  0.50536631  0.73340802  1
  C  C11  1  0.85077195  0.49463369  0.23340802  1
  O  O12  1  0.01415863  0.38233292  0.68940613  1
  O  O13  1  0.15052527  0.77855022  0.75834339  1
  O  O14  1  0.23283071  0.08273607  0.10213188  1
  O  O15  1  0.26304747  0.04456561  0.45679551  1
  O  O16  1  0.28151839  0.36023283  0.75731291  1
  O  O17  1  0.36836995  0.64263526  0.23714822  1
  O  O18  1  0.52147378  0.09610368  0.25449550  1
  O  O19  1  0.47852622  0.90389632  0.75449550  1
  O  O20  1  0.63163005  0.35736474  0.73714822  1
  O  O21  1  0.71848161  0.63976717  0.25731291  1
  O  O22  1  0.73695253  0.95543439  0.95679551  1
  O  O23  1  0.76716929  0.91726393  0.60213188  1
  O  O24  1  0.84947473  0.22144978  0.25834339  1
  O  O25  1  0.98584137  0.61766708  0.18940613  1
