# generated using pymatgen
data_K2GeF6
_symmetry_space_group_name_H-M   'P 1'
_cell_length_a   5.85285723
_cell_length_b   5.85285723
_cell_length_c   9.55239966
_cell_angle_alpha   90.00000000
_cell_angle_beta   90.00000000
_cell_angle_gamma   119.99999994
_symmetry_Int_Tables_number   1
_chemical_formula_structural   K2GeF6
_chemical_formula_sum   'K4 Ge2 F12'
_cell_volume   283.38638249
_cell_formula_units_Z   2
loop_
 _symmetry_equiv_pos_site_id
 _symmetry_equiv_pos_as_xyz
  1  'x, y, z'
loop_
 _atom_site_type_symbol
 _atom_site_label
 _atom_site_symmetry_multiplicity
 _atom_site_fract_x
 _atom_site_fract_y
 _atom_site_fract_z
 _atom_site_occupancy
  F  F0  1  0.51976123  0.48023877  0.64497618  1
  F  F1  1  0.03952246  0.51976123  0.14497618  1
  F  F2  1  0.48023877  0.96047754  0.14497618  1
  F  F3  1  0.51976123  0.03952246  0.64497618  1
  F  F4  1  0.96047754  0.48023877  0.64497618  1
  F  F5  1  0.48023877  0.51976123  0.14497618  1
  F  F6  1  0.18263975  0.81736025  0.36394554  1
  F  F7  1  0.36527951  0.18263975  0.86394554  1
  F  F8  1  0.81736025  0.63472049  0.86394554  1
  F  F9  1  0.18263975  0.36527951  0.36394554  1
  F  F10  1  0.63472049  0.81736025  0.36394554  1
  F  F11  1  0.81736025  0.18263975  0.86394554  1
  K  K12  1  0.00000000  0.00000000  0.09433214  1
  K  K13  1  0.00000000  0.00000000  0.59433214  1
  K  K14  1  0.66666667  0.33333333  0.37118836  1
  K  K15  1  0.33333333  0.66666667  0.87118836  1
  Ge  Ge16  1  0.66666667  0.33333333  0.75771433  1
  Ge  Ge17  1  0.33333333  0.66666667  0.25771433  1
