# generated using pymatgen
data_TaZn2N3
_symmetry_space_group_name_H-M   'P 1'
_cell_length_a   5.74133570
_cell_length_b   5.79595430
_cell_length_c   5.44606484
_cell_angle_alpha   90.00000000
_cell_angle_beta   90.00000000
_cell_angle_gamma   120.31519177
_symmetry_Int_Tables_number   1
_chemical_formula_structural   TaZn2N3
_chemical_formula_sum   'Ta2 Zn4 N6'
_cell_volume   156.44554394
_cell_formula_units_Z   2
loop_
 _symmetry_equiv_pos_site_id
 _symmetry_equiv_pos_as_xyz
  1  'x, y, z'
loop_
 _atom_site_type_symbol
 _atom_site_label
 _atom_site_symmetry_multiplicity
 _atom_site_fract_x
 _atom_site_fract_y
 _atom_site_fract_z
 _atom_site_occupancy
  Ta  Ta0  1  1.00000000  0.66886425  0.48739209  1
  Ta  Ta1  1  0.00000000  0.33113575  0.98739209  1
  Zn  Zn2  1  0.34422934  0.33344183  0.49804268  1
  Zn  Zn3  1  0.65577066  0.98921249  0.49804268  1
  Zn  Zn4  1  0.65577066  0.66655817  0.99804268  1
  Zn  Zn5  1  0.34422934  0.01078751  0.99804268  1
  N  N6  1  0.31822965  0.32966034  0.87525618  1
  N  N7  1  0.68177035  0.01143169  0.87525618  1
  N  N8  1  0.68177035  0.67033966  0.37525618  1
  N  N9  1  0.31822965  0.98856831  0.37525618  1
  N  N10  1  0.00000000  0.65305979  0.85401017  1
  N  N11  1  1.00000000  0.34694021  0.35401017  1
