# generated using pymatgen
data_Ba3NbGa3(SiO7)2
_symmetry_space_group_name_H-M   'P 1'
_cell_length_a   8.65367946
_cell_length_b   8.65367946
_cell_length_c   5.27118464
_cell_angle_alpha   90.00000000
_cell_angle_beta   90.00000000
_cell_angle_gamma   120.00000000
_symmetry_Int_Tables_number   1
_chemical_formula_structural   Ba3NbGa3(SiO7)2
_chemical_formula_sum   'Ba3 Nb1 Ga3 Si2 O14'
_cell_volume   341.85384565
_cell_formula_units_Z   1
loop_
 _symmetry_equiv_pos_site_id
 _symmetry_equiv_pos_as_xyz
  1  'x, y, z'
loop_
 _atom_site_type_symbol
 _atom_site_label
 _atom_site_symmetry_multiplicity
 _atom_site_fract_x
 _atom_site_fract_y
 _atom_site_fract_z
 _atom_site_occupancy
  O  O0  1  0.10970672  0.21755302  0.77338067  1
  O  O1  1  0.78244698  0.89215370  0.77338067  1
  O  O2  1  0.10784630  0.89029328  0.77338067  1
  O  O3  1  0.89215370  0.78244698  0.22661933  1
  O  O4  1  0.89029328  0.10784630  0.22661933  1
  O  O5  1  0.21755302  0.10970672  0.22661933  1
  O  O6  1  0.30180069  0.47657920  0.35381832  1
  O  O7  1  0.52342080  0.82522150  0.35381832  1
  O  O8  1  0.17477850  0.69819931  0.35381832  1
  O  O9  1  0.33333333  0.66666667  0.78606675  1
  O  O10  1  0.66666667  0.33333333  0.21393325  1
  O  O11  1  0.47657920  0.30180069  0.64618168  1
  O  O12  1  0.69819931  0.17477850  0.64618168  1
  O  O13  1  0.82522150  0.52342080  0.64618168  1
  Si  Si14  1  0.66666667  0.33333333  0.51939148  1
  Si  Si15  1  0.33333333  0.66666667  0.48060852  1
  Ga  Ga16  1  0.25812793  0.25812793  0.50000000  1
  Ga  Ga17  1  0.00000000  0.74187207  0.50000000  1
  Ga  Ga18  1  0.74187207  0.00000000  0.50000000  1
  Nb  Nb19  1  0.00000000  0.00000000  0.00000000  1
  Ba  Ba20  1  0.57168929  0.57168929  0.00000000  1
  Ba  Ba21  1  0.00000000  0.42831071  0.00000000  1
  Ba  Ba22  1  0.42831071  0.00000000  0.00000000  1
