# generated using pymatgen
data_Re2S2O13
_symmetry_space_group_name_H-M   'P 1'
_cell_length_a   9.78972668
_cell_length_b   8.46039500
_cell_length_c   6.05887055
_cell_angle_alpha   90.00000000
_cell_angle_beta   90.00000000
_cell_angle_gamma   90.00000000
_symmetry_Int_Tables_number   1
_chemical_formula_structural   Re2S2O13
_chemical_formula_sum   'Re4 S4 O26'
_cell_volume   501.82567856
_cell_formula_units_Z   2
loop_
 _symmetry_equiv_pos_site_id
 _symmetry_equiv_pos_as_xyz
  1  'x, y, z'
loop_
 _atom_site_type_symbol
 _atom_site_label
 _atom_site_symmetry_multiplicity
 _atom_site_fract_x
 _atom_site_fract_y
 _atom_site_fract_z
 _atom_site_occupancy
  Re  Re0  1  0.59949435  0.18580355  0.03573741  1
  Re  Re1  1  0.40050665  0.81419745  0.03573741  1
  Re  Re2  1  0.90050465  0.68580155  0.03573741  1
  Re  Re3  1  0.09949435  0.31419645  0.03573741  1
  S  S4  1  0.81625266  0.37272980  0.70967246  1
  S  S5  1  0.18374734  0.62727120  0.70967246  1
  S  S6  1  0.68374734  0.87272980  0.70967246  1
  S  S7  1  0.31625166  0.12727020  0.70967246  1
  O  O8  1  0.67872277  0.35029161  0.84522801  1
  O  O9  1  0.32127723  0.64970839  0.84522801  1
  O  O10  1  0.82127823  0.85029061  0.84522801  1
  O  O11  1  0.17872377  0.14970839  0.84522801  1
  O  O12  1  0.91921652  0.27230269  0.82675522  1
  O  O13  1  0.08078348  0.72769631  0.82675522  1
  O  O14  1  0.58078348  0.77230269  0.82675522  1
  O  O15  1  0.41921652  0.22769631  0.82675522  1
  O  O16  1  0.84872716  0.54412309  0.74067832  1
  O  O17  1  0.15127384  0.45587791  0.74067832  1
  O  O18  1  0.65127284  0.04412209  0.74067832  1
  O  O19  1  0.34872716  0.95587791  0.74067832  1
  O  O20  1  0.79536302  0.33370551  0.48401952  1
  O  O21  1  0.20463698  0.66629349  0.48401952  1
  O  O22  1  0.70463598  0.83370551  0.48401952  1
  O  O23  1  0.29536402  0.16629249  0.48401952  1
  O  O24  1  0.50000100  0.00000000  0.10975761  1
  O  O25  1  0.00000000  0.50000000  0.10975761  1
  O  O26  1  0.74910955  0.12354758  0.15057776  1
  O  O27  1  0.25089045  0.87645142  0.15057776  1
  O  O28  1  0.75089045  0.62354758  0.15057776  1
  O  O29  1  0.24910955  0.37645242  0.15057776  1
  O  O30  1  0.53375433  0.31318532  0.22735299  1
  O  O31  1  0.46624567  0.68681468  0.22735299  1
  O  O32  1  0.96624567  0.81318532  0.22735299  1
  O  O33  1  0.03375433  0.18681468  0.22735299  1
