# generated using pymatgen
data_ReH4NO4
_symmetry_space_group_name_H-M   'P 1'
_cell_length_a   6.24956000
_cell_length_b   6.24956000
_cell_length_c   7.55560889
_cell_angle_alpha   114.42935167
_cell_angle_beta   114.42935179
_cell_angle_gamma   90.00000002
_symmetry_Int_Tables_number   1
_chemical_formula_structural   ReH4NO4
_chemical_formula_sum   'Re2 H8 N2 O8'
_cell_volume   239.36150558
_cell_formula_units_Z   2
loop_
 _symmetry_equiv_pos_site_id
 _symmetry_equiv_pos_as_xyz
  1  'x, y, z'
loop_
 _atom_site_type_symbol
 _atom_site_label
 _atom_site_symmetry_multiplicity
 _atom_site_fract_x
 _atom_site_fract_y
 _atom_site_fract_z
 _atom_site_occupancy
  H  H0  1  0.57307371  0.15653544  0.40009127  1
  H  H1  1  0.49355583  0.32307371  0.90009127  1
  H  H2  1  0.67692629  0.59346456  0.09990873  1
  H  H3  1  0.75644417  0.42692629  0.59990873  1
  H  H4  1  0.82701756  0.24355583  0.40009127  1
  H  H5  1  0.42298244  0.50644417  0.09990873  1
  H  H6  1  0.40653544  0.57701756  0.90009127  1
  H  H7  1  0.84346456  0.17298244  0.59990873  1
  N  N8  1  0.50000000  0.50000000  0.00000000  1
  N  N9  1  0.75000000  0.25000000  0.50000000  1
  O  O10  1  0.44415559  0.03321880  0.66424986  1
  O  O11  1  0.28321880  0.97009427  0.16424986  1
  O  O12  1  0.80584441  0.71678120  0.83575014  1
  O  O13  1  0.36896894  0.55584441  0.33575014  1
  O  O14  1  0.96678120  0.77990573  0.33575014  1
  O  O15  1  0.22009427  0.63103106  0.66424986  1
  O  O16  1  0.88103106  0.19415559  0.16424986  1
  O  O17  1  0.02990573  0.11896894  0.83575014  1
  Re  Re18  1  0.25000000  0.75000000  0.50000000  1
  Re  Re19  1  0.00000000  0.00000000  0.00000000  1
