# generated using pymatgen
data_MnCu2GeS4
_symmetry_space_group_name_H-M   'P 1'
_cell_length_a   6.23957470
_cell_length_b   6.50448263
_cell_length_c   7.59316442
_cell_angle_alpha   90.00000000
_cell_angle_beta   90.00000000
_cell_angle_gamma   90.00000000
_symmetry_Int_Tables_number   1
_chemical_formula_structural   MnCu2GeS4
_chemical_formula_sum   'Mn2 Cu4 Ge2 S8'
_cell_volume   308.17013652
_cell_formula_units_Z   2
loop_
 _symmetry_equiv_pos_site_id
 _symmetry_equiv_pos_as_xyz
  1  'x, y, z'
loop_
 _atom_site_type_symbol
 _atom_site_label
 _atom_site_symmetry_multiplicity
 _atom_site_fract_x
 _atom_site_fract_y
 _atom_site_fract_z
 _atom_site_occupancy
  S  S0  1  0.37723490  0.65900445  0.25817771  1
  S  S1  1  0.87723490  0.34099555  0.24182229  1
  S  S2  1  0.87723490  0.34099555  0.75817771  1
  S  S3  1  0.37723490  0.65900445  0.74182229  1
  S  S4  1  0.36680347  0.18387796  0.00000000  1
  S  S5  1  0.88679746  0.84266508  0.00000000  1
  S  S6  1  0.86680347  0.81612204  0.50000000  1
  S  S7  1  0.38679746  0.15733492  0.50000000  1
  Mn  Mn8  1  0.50232580  0.84089770  0.00000000  1
  Mn  Mn9  1  0.00232580  0.15910230  0.50000000  1
  Cu  Cu10  1  0.00952316  0.67516837  0.24880073  1
  Cu  Cu11  1  0.00952316  0.67516837  0.75119927  1
  Cu  Cu12  1  0.50952316  0.32483163  0.74880073  1
  Cu  Cu13  1  0.50952316  0.32483163  0.25119927  1
  Ge  Ge14  1  0.50196716  0.82647032  0.50000000  1
  Ge  Ge15  1  0.00196716  0.17352968  0.00000000  1
