# generated using pymatgen
data_BaCO3
_symmetry_space_group_name_H-M   'P 1'
_cell_length_a   7.11676800
_cell_length_b   5.40390254
_cell_length_c   4.58013735
_cell_angle_alpha   90.00000000
_cell_angle_beta   110.54042338
_cell_angle_gamma   90.00000000
_symmetry_Int_Tables_number   1
_chemical_formula_structural   BaCO3
_chemical_formula_sum   'Ba2 C2 O6'
_cell_volume   164.94598970
_cell_formula_units_Z   2
loop_
 _symmetry_equiv_pos_site_id
 _symmetry_equiv_pos_as_xyz
  1  'x, y, z'
loop_
 _atom_site_type_symbol
 _atom_site_label
 _atom_site_symmetry_multiplicity
 _atom_site_fract_x
 _atom_site_fract_y
 _atom_site_fract_z
 _atom_site_occupancy
  Ba  Ba0  1  0.22781489  0.76580858  0.90618421  1
  Ba  Ba1  1  0.77218511  0.26580858  0.09381579  1
  C  C2  1  0.24857987  0.26947343  0.51376427  1
  C  C3  1  0.75142013  0.76947343  0.48623573  1
  O  O4  1  0.19916971  0.05383104  0.38281258  1
  O  O5  1  0.16895277  0.46970266  0.36081556  1
  O  O6  1  0.36757521  0.28518329  0.80338123  1
  O  O7  1  0.63242479  0.78518329  0.19661877  1
  O  O8  1  0.80083029  0.55383104  0.61718742  1
  O  O9  1  0.83104723  0.96970266  0.63918444  1
