# generated using pymatgen
data_Li4Zr3O8
_symmetry_space_group_name_H-M   'P 1'
_cell_length_a   5.46528813
_cell_length_b   10.19813392
_cell_length_c   6.20755523
_cell_angle_alpha   90.00000000
_cell_angle_beta   90.00000000
_cell_angle_gamma   80.25645854
_symmetry_Int_Tables_number   1
_chemical_formula_structural   Li4Zr3O8
_chemical_formula_sum   'Li8 Zr6 O16'
_cell_volume   340.99193494
_cell_formula_units_Z   2
loop_
 _symmetry_equiv_pos_site_id
 _symmetry_equiv_pos_as_xyz
  1  'x, y, z'
loop_
 _atom_site_type_symbol
 _atom_site_label
 _atom_site_symmetry_multiplicity
 _atom_site_fract_x
 _atom_site_fract_y
 _atom_site_fract_z
 _atom_site_occupancy
  Li  Li0  1  0.38166873  0.13262988  0.87734503  1
  Li  Li1  1  0.86833127  0.11737012  0.62265497  1
  Li  Li2  1  0.86833127  0.61737012  0.87734503  1
  Li  Li3  1  0.38166873  0.63262988  0.62265497  1
  Li  Li4  1  0.62500000  0.37500000  0.39252799  1
  Li  Li5  1  0.12500000  0.37500000  0.12708337  1
  Li  Li6  1  0.12500000  0.87500000  0.37291663  1
  Li  Li7  1  0.62500000  0.87500000  0.10747201  1
  Zr  Zr8  1  0.39033345  0.10510002  0.38871317  1
  Zr  Zr9  1  0.12500000  0.37500000  0.64688608  1
  Zr  Zr10  1  0.85966655  0.14489998  0.11128683  1
  Zr  Zr11  1  0.12500000  0.87500000  0.85311392  1
  Zr  Zr12  1  0.85966655  0.64489998  0.38871317  1
  Zr  Zr13  1  0.39033345  0.60510002  0.11128683  1
  O  O14  1  0.22664681  0.50041232  0.87684074  1
  O  O15  1  0.02335319  0.24958768  0.87684074  1
  O  O16  1  0.01589673  0.24648781  0.37434706  1
  O  O17  1  0.23410327  0.00351219  0.12565294  1
  O  O18  1  0.74740116  0.01421957  0.35459297  1
  O  O19  1  0.46673986  0.24557698  0.60823830  1
  O  O20  1  0.23410327  0.50351219  0.37434706  1
  O  O21  1  0.50259884  0.23578043  0.14540703  1
  O  O22  1  0.78326014  0.50442302  0.60823830  1
  O  O23  1  0.46673986  0.74557698  0.89176170  1
  O  O24  1  0.78326014  0.00442302  0.89176170  1
  O  O25  1  0.01589673  0.74648781  0.12565294  1
  O  O26  1  0.22664681  0.00041232  0.62315926  1
  O  O27  1  0.50259884  0.73578043  0.35459297  1
  O  O28  1  0.02335319  0.74958768  0.62315926  1
  O  O29  1  0.74740116  0.51421957  0.14540703  1
