# generated using pymatgen
data_Li7Cr2O8
_symmetry_space_group_name_H-M   'P 1'
_cell_length_a   7.83234423
_cell_length_b   5.17662090
_cell_length_c   5.18608142
_cell_angle_alpha   68.53067380
_cell_angle_beta   109.59389936
_cell_angle_gamma   96.96393831
_symmetry_Int_Tables_number   1
_chemical_formula_structural   Li7Cr2O8
_chemical_formula_sum   'Li7 Cr2 O8'
_cell_volume   184.34870693
_cell_formula_units_Z   1
loop_
 _symmetry_equiv_pos_site_id
 _symmetry_equiv_pos_as_xyz
  1  'x, y, z'
loop_
 _atom_site_type_symbol
 _atom_site_label
 _atom_site_symmetry_multiplicity
 _atom_site_fract_x
 _atom_site_fract_y
 _atom_site_fract_z
 _atom_site_occupancy
  Li  Li0  1  0.99463136  0.76280589  0.23230181  1
  Li  Li1  1  0.20236664  0.27671843  0.40442118  1
  Li  Li2  1  0.45226270  0.74140248  0.49116042  1
  Li  Li3  1  0.56241557  0.26127009  0.51067551  1
  Li  Li4  1  0.58871479  0.75507965  0.08808927  1
  Li  Li5  1  0.80256581  0.71107171  0.61152939  1
  Li  Li6  1  0.98911397  0.24023918  0.76006521  1
  Cr  Cr7  1  0.23506399  0.71359965  0.83739008  1
  Cr  Cr8  1  0.76280313  0.27564036  0.15148281  1
  O  O9  1  0.03977558  0.83862622  0.84145308  1
  O  O10  1  0.17140393  0.51805106  0.61482310  1
  O  O11  1  0.37874601  0.96197322  0.68896235  1
  O  O12  1  0.36595142  0.54374974  0.19708786  1
  O  O13  1  0.63309533  0.47905465  0.79638261  1
  O  O14  1  0.63163551  0.00251055  0.32871937  1
  O  O15  1  0.80216258  0.50089226  0.36545578  1
  O  O16  1  0.97250568  0.16336983  0.15532317  1
