# generated using pymatgen
data_Na4Sr(SiO3)3
_symmetry_space_group_name_H-M   'P 1'
_cell_length_a   6.68464716
_cell_length_b   6.70537380
_cell_length_c   6.70404936
_cell_angle_alpha   109.58763464
_cell_angle_beta   109.46259579
_cell_angle_gamma   109.30871441
_symmetry_Int_Tables_number   1
_chemical_formula_structural   Na4Sr(SiO3)3
_chemical_formula_sum   'Na4 Sr1 Si3 O9'
_cell_volume   231.47696652
_cell_formula_units_Z   1
loop_
 _symmetry_equiv_pos_site_id
 _symmetry_equiv_pos_as_xyz
  1  'x, y, z'
loop_
 _atom_site_type_symbol
 _atom_site_label
 _atom_site_symmetry_multiplicity
 _atom_site_fract_x
 _atom_site_fract_y
 _atom_site_fract_z
 _atom_site_occupancy
  Na  Na0  1  0.49624659  0.49624659  0.99249317  1
  Na  Na1  1  0.52395418  0.02395418  0.04790837  1
  Na  Na2  1  0.47114988  0.44506815  0.46775127  1
  Na  Na3  1  0.99660139  0.02268312  0.46775127  1
  Sr  Sr4  1  0.99582668  0.49582668  0.99165336  1
  Si  Si5  1  0.49669736  0.96142586  0.53052166  1
  Si  Si6  1  0.96066916  0.96066915  0.92133831  1
  Si  Si7  1  0.03382430  0.56909580  0.53052166  1
  O  O8  1  0.99190086  0.75331303  0.73116900  1
  O  O9  1  0.80004823  0.42633924  0.26007387  1
  O  O10  1  0.12485524  0.42338587  0.65359310  1
  O  O11  1  0.46002564  0.83373463  0.26007387  1
  O  O12  1  0.52873786  0.23020723  0.65359310  1
  O  O13  1  0.19953799  0.22727223  0.06520010  1
  O  O14  1  0.73926814  0.97785597  0.73116900  1
  O  O15  1  0.26299439  0.76299439  0.52598879  1
  O  O16  1  0.86566211  0.83792786  0.06520010  1
