# generated using pymatgen
data_RbTe
_symmetry_space_group_name_H-M   'P 1'
_cell_length_a   10.11871692
_cell_length_b   10.11871691
_cell_length_c   6.65534581
_cell_angle_alpha   90.00000000
_cell_angle_beta   90.00000000
_cell_angle_gamma   120.00000002
_symmetry_Int_Tables_number   1
_chemical_formula_structural   RbTe
_chemical_formula_sum   'Rb6 Te6'
_cell_volume   590.13605646
_cell_formula_units_Z   6
loop_
 _symmetry_equiv_pos_site_id
 _symmetry_equiv_pos_as_xyz
  1  'x, y, z'
loop_
 _atom_site_type_symbol
 _atom_site_label
 _atom_site_symmetry_multiplicity
 _atom_site_fract_x
 _atom_site_fract_y
 _atom_site_fract_z
 _atom_site_occupancy
  Rb  Rb0  1  0.65401639  0.00000000  0.00000000  1
  Rb  Rb1  1  0.34598361  0.34598361  0.00000000  1
  Rb  Rb2  1  0.00000000  0.65401639  0.00000000  1
  Rb  Rb3  1  0.32019552  0.00000000  0.50000000  1
  Rb  Rb4  1  0.67980448  0.67980448  0.50000000  1
  Rb  Rb5  1  0.00000000  0.32019552  0.50000000  1
  Te  Te6  1  0.00000000  0.00000000  0.21221804  1
  Te  Te7  1  0.00000000  0.00000000  0.78778196  1
  Te  Te8  1  0.33333333  0.66666667  0.28684129  1
  Te  Te9  1  0.33333333  0.66666667  0.71315871  1
  Te  Te10  1  0.66666667  0.33333333  0.71315871  1
  Te  Te11  1  0.66666667  0.33333333  0.28684129  1
