# generated using pymatgen
data_LiSnPO4
_symmetry_space_group_name_H-M   'P 1'
_cell_length_a   7.89758587
_cell_length_b   10.19983070
_cell_length_c   5.42447102
_cell_angle_alpha   90.00000000
_cell_angle_beta   90.00000000
_cell_angle_gamma   90.00000000
_symmetry_Int_Tables_number   1
_chemical_formula_structural   LiSnPO4
_chemical_formula_sum   'Li4 Sn4 P4 O16'
_cell_volume   436.96304908
_cell_formula_units_Z   4
loop_
 _symmetry_equiv_pos_site_id
 _symmetry_equiv_pos_as_xyz
  1  'x, y, z'
loop_
 _atom_site_type_symbol
 _atom_site_label
 _atom_site_symmetry_multiplicity
 _atom_site_fract_x
 _atom_site_fract_y
 _atom_site_fract_z
 _atom_site_occupancy
  Li  Li0  1  0.16967066  0.28838253  0.03707943  1
  Li  Li1  1  0.33032934  0.78838253  0.53707943  1
  Li  Li2  1  0.66967066  0.21161747  0.03707943  1
  Li  Li3  1  0.83032934  0.71161747  0.53707943  1
  Sn  Sn4  1  0.26145761  0.09125467  0.53348242  1
  Sn  Sn5  1  0.23854239  0.59125467  0.03348242  1
  Sn  Sn6  1  0.76145761  0.40874533  0.53348242  1
  Sn  Sn7  1  0.73854239  0.90874533  0.03348242  1
  P  P8  1  0.18428216  0.95528090  0.03261129  1
  P  P9  1  0.31571784  0.45528090  0.53261129  1
  P  P10  1  0.68428216  0.54471910  0.03261129  1
  P  P11  1  0.81571784  0.04471910  0.53261129  1
  O  O12  1  0.00654331  0.89254065  0.01991204  1
  O  O13  1  0.18201924  0.10703447  0.03111803  1
  O  O14  1  0.27208587  0.91061665  0.27761522  1
  O  O15  1  0.21325542  0.41122650  0.29988157  1
  O  O16  1  0.28674458  0.91122650  0.79988157  1
  O  O17  1  0.22791413  0.41061665  0.77761522  1
  O  O18  1  0.31798076  0.60703447  0.53111803  1
  O  O19  1  0.49345669  0.39254065  0.51991204  1
  O  O20  1  0.50654331  0.60745935  0.01991204  1
  O  O21  1  0.68201924  0.39296553  0.03111803  1
  O  O22  1  0.77208587  0.58938335  0.27761522  1
  O  O23  1  0.71325542  0.08877350  0.29988157  1
  O  O24  1  0.78674458  0.58877350  0.79988157  1
  O  O25  1  0.72791413  0.08938335  0.77761522  1
  O  O26  1  0.81798076  0.89296553  0.53111803  1
  O  O27  1  0.99345669  0.10745935  0.51991204  1
