# generated using pymatgen
data_CaPtO3
_symmetry_space_group_name_H-M   'P 1'
_cell_length_a   3.19010103
_cell_length_b   5.24948007
_cell_length_c   7.44393627
_cell_angle_alpha   90.00000000
_cell_angle_beta   90.00000000
_cell_angle_gamma   107.68894471
_symmetry_Int_Tables_number   1
_chemical_formula_structural   CaPtO3
_chemical_formula_sum   'Ca2 Pt2 O6'
_cell_volume   118.76506619
_cell_formula_units_Z   2
loop_
 _symmetry_equiv_pos_site_id
 _symmetry_equiv_pos_as_xyz
  1  'x, y, z'
loop_
 _atom_site_type_symbol
 _atom_site_label
 _atom_site_symmetry_multiplicity
 _atom_site_fract_x
 _atom_site_fract_y
 _atom_site_fract_z
 _atom_site_occupancy
  O  O0  1  0.62822547  0.25645093  0.54633436  1
  O  O1  1  0.37177453  0.74354907  0.45366564  1
  O  O2  1  0.37177453  0.74354907  0.04633436  1
  O  O3  1  0.62822547  0.25645093  0.95366564  1
  O  O4  1  0.91587576  0.83175152  0.75000000  1
  O  O5  1  0.08412424  0.16824848  0.25000000  1
  Ca  Ca6  1  0.25096748  0.50193497  0.75000000  1
  Ca  Ca7  1  0.74903252  0.49806503  0.25000000  1
  Pt  Pt8  1  0.00000000  0.00000000  0.00000000  1
  Pt  Pt9  1  0.00000000  0.00000000  0.50000000  1
