# generated using pymatgen
data_H7ClO3
_symmetry_space_group_name_H-M   'P 1'
_cell_length_a   6.41121003
_cell_length_b   6.41121003
_cell_length_c   6.78989847
_cell_angle_alpha   70.74928424
_cell_angle_beta   109.25071576
_cell_angle_gamma   72.76868729
_symmetry_Int_Tables_number   1
_chemical_formula_structural   H7ClO3
_chemical_formula_sum   'H14 Cl2 O6'
_cell_volume   221.59726164
_cell_formula_units_Z   2
loop_
 _symmetry_equiv_pos_site_id
 _symmetry_equiv_pos_as_xyz
  1  'x, y, z'
loop_
 _atom_site_type_symbol
 _atom_site_label
 _atom_site_symmetry_multiplicity
 _atom_site_fract_x
 _atom_site_fract_y
 _atom_site_fract_z
 _atom_site_occupancy
  H  H0  1  0.20723598  0.82070882  0.55124205  1
  H  H1  1  0.32930541  0.91653442  0.39700916  1
  H  H2  1  0.17929118  0.79276402  0.05124205  1
  H  H3  1  0.08346558  0.67069459  0.89700916  1
  H  H4  1  0.81545769  0.30757186  0.75612808  1
  H  H5  1  0.53120146  0.53949102  0.61718210  1
  H  H6  1  0.46050898  0.46879854  0.11718210  1
  H  H7  1  0.69242814  0.18454231  0.25612808  1
  H  H8  1  0.50014625  0.94606676  0.74121874  1
  H  H9  1  0.58619825  0.22138192  0.72453519  1
  H  H10  1  0.42022449  0.07506449  0.88636676  1
  H  H11  1  0.05393324  0.49985375  0.24121874  1
  H  H12  1  0.77861808  0.41380175  0.22453519  1
  H  H13  1  0.92493551  0.57977551  0.38636676  1
  Cl  Cl14  1  0.86943807  0.83283779  0.51796205  1
  Cl  Cl15  1  0.16716221  0.13056193  0.01796205  1
  O  O16  1  0.37104498  0.80453171  0.56118750  1
  O  O17  1  0.19546829  0.62895502  0.06118750  1
  O  O18  1  0.63691106  0.36595507  0.64282332  1
  O  O19  1  0.63404493  0.36308894  0.14282332  1
  O  O20  1  0.54902115  0.02873494  0.83624705  1
  O  O21  1  0.97126506  0.45097885  0.33624705  1
