# generated using pymatgen
data_NaCuP2O7
_symmetry_space_group_name_H-M   'P 1'
_cell_length_a   8.69110685
_cell_length_b   8.80246990
_cell_length_c   5.04334213
_cell_angle_alpha   73.33076819
_cell_angle_beta   89.98689217
_cell_angle_gamma   67.97950808
_symmetry_Int_Tables_number   1
_chemical_formula_structural   NaCuP2O7
_chemical_formula_sum   'Na2 Cu2 P4 O14'
_cell_volume   340.14306533
_cell_formula_units_Z   2
loop_
 _symmetry_equiv_pos_site_id
 _symmetry_equiv_pos_as_xyz
  1  'x, y, z'
loop_
 _atom_site_type_symbol
 _atom_site_label
 _atom_site_symmetry_multiplicity
 _atom_site_fract_x
 _atom_site_fract_y
 _atom_site_fract_z
 _atom_site_occupancy
  Na  Na0  1  0.42815613  0.90375234  0.15019536  1
  Na  Na1  1  0.92820112  0.90366451  0.44633288  1
  Cu  Cu2  1  0.00124161  0.49619386  0.50054380  1
  Cu  Cu3  1  0.50121183  0.49620081  0.50325607  1
  P  P4  1  0.31250583  0.31869419  0.24147506  1
  P  P5  1  0.18966111  0.67718265  0.05445427  1
  P  P6  1  0.81246417  0.31861319  0.93979826  1
  P  P7  1  0.68960740  0.67702941  0.76835080  1
  O  O8  1  0.15128639  0.32307962  0.38167800  1
  O  O9  1  0.05425144  0.67081850  0.25780546  1
  O  O10  1  0.37478064  0.16720749  0.13687105  1
  O  O11  1  0.25145662  0.49838667  0.97494497  1
  O  O12  1  0.12452282  0.83088859  0.80170389  1
  O  O13  1  0.44913547  0.32407366  0.43250843  1
  O  O14  1  0.34766962  0.67351940  0.20991315  1
  O  O15  1  0.65120501  0.32308704  0.79538682  1
  O  O16  1  0.55403515  0.67082832  0.57164834  1
  O  O17  1  0.87469801  0.16708079  0.19602700  1
  O  O18  1  0.75147478  0.49821801  0.02667368  1
  O  O19  1  0.62446190  0.83074188  0.86747807  1
  O  O20  1  0.94907267  0.32401956  0.74323629  1
  O  O21  1  0.84754528  0.67349251  0.61633239  1
