# generated using pymatgen
data_FeHO2
_symmetry_space_group_name_H-M   'P 1'
_cell_length_a   3.07415031
_cell_length_b   4.62571134
_cell_length_c   10.10459577
_cell_angle_alpha   90.00000000
_cell_angle_beta   90.00000000
_cell_angle_gamma   90.00000000
_symmetry_Int_Tables_number   1
_chemical_formula_structural   FeHO2
_chemical_formula_sum   'Fe4 H4 O8'
_cell_volume   143.68868515
_cell_formula_units_Z   4
loop_
 _symmetry_equiv_pos_site_id
 _symmetry_equiv_pos_as_xyz
  1  'x, y, z'
loop_
 _atom_site_type_symbol
 _atom_site_label
 _atom_site_symmetry_multiplicity
 _atom_site_fract_x
 _atom_site_fract_y
 _atom_site_fract_z
 _atom_site_occupancy
  Fe  Fe0  1  0.25000000  0.44864348  0.35644222  1
  Fe  Fe1  1  0.25000000  0.05135652  0.85644222  1
  Fe  Fe2  1  0.75000000  0.55135652  0.64355778  1
  Fe  Fe3  1  0.75000000  0.94864348  0.14355778  1
  H  H4  1  0.25000000  0.09620628  0.58921707  1
  H  H5  1  0.25000000  0.40379372  0.08921707  1
  H  H6  1  0.75000000  0.90379372  0.41078293  1
  H  H7  1  0.75000000  0.59620628  0.91078293  1
  O  O8  1  0.25000000  0.80480358  0.69372504  1
  O  O9  1  0.25000000  0.69519642  0.19372504  1
  O  O10  1  0.75000000  0.19519642  0.30627496  1
  O  O11  1  0.75000000  0.30480358  0.80627496  1
  O  O12  1  0.25000000  0.30128155  0.55672310  1
  O  O13  1  0.25000000  0.19871845  0.05672310  1
  O  O14  1  0.75000000  0.69871845  0.44327690  1
  O  O15  1  0.75000000  0.80128155  0.94327690  1
