# generated using pymatgen
data_Mn3Cr(PO4)4
_symmetry_space_group_name_H-M   'P 1'
_cell_length_a   4.86318219
_cell_length_b   9.85736148
_cell_length_c   5.97186359
_cell_angle_alpha   90.00000000
_cell_angle_beta   90.00000000
_cell_angle_gamma   89.27800056
_symmetry_Int_Tables_number   1
_chemical_formula_structural   Mn3Cr(PO4)4
_chemical_formula_sum   'Mn3 Cr1 P4 O16'
_cell_volume   286.25733227
_cell_formula_units_Z   1
loop_
 _symmetry_equiv_pos_site_id
 _symmetry_equiv_pos_as_xyz
  1  'x, y, z'
loop_
 _atom_site_type_symbol
 _atom_site_label
 _atom_site_symmetry_multiplicity
 _atom_site_fract_x
 _atom_site_fract_y
 _atom_site_fract_z
 _atom_site_occupancy
  Mn  Mn0  1  0.06837169  0.71542386  0.75000000  1
  Mn  Mn1  1  0.43450309  0.21960608  0.75000000  1
  Mn  Mn2  1  0.56550531  0.78327546  0.25000000  1
  Cr  Cr3  1  0.96216900  0.27557205  0.25000000  1
  P  P4  1  0.09318542  0.59784873  0.25000000  1
  P  P5  1  0.41170505  0.09651292  0.25000000  1
  P  P6  1  0.58377498  0.90116209  0.75000000  1
  P  P7  1  0.90934411  0.40172815  0.75000000  1
  O  O8  1  0.16193164  0.44655899  0.25000000  1
  O  O9  1  0.23449788  0.67131208  0.04881159  1
  O  O10  1  0.23449788  0.67131208  0.45118841  1
  O  O11  1  0.22590331  0.38288039  0.75000000  1
  O  O12  1  0.27048002  0.88116549  0.75000000  1
  O  O13  1  0.25617348  0.17226587  0.05162176  1
  O  O14  1  0.25617348  0.17226587  0.44837824  1
  O  O15  1  0.34086008  0.94562507  0.25000000  1
  O  O16  1  0.64192637  0.05455092  0.75000000  1
  O  O17  1  0.73089914  0.83047779  0.54852106  1
  O  O18  1  0.73089914  0.83047779  0.95147894  1
  O  O19  1  0.72025923  0.11576051  0.25000000  1
  O  O20  1  0.77819530  0.61898312  0.25000000  1
  O  O21  1  0.77006824  0.33007314  0.54574280  1
  O  O22  1  0.77006824  0.33007314  0.95425720  1
  O  O23  1  0.84860793  0.55508839  0.75000000  1
