# generated using pymatgen
data_NaClO3
_symmetry_space_group_name_H-M   'P 1'
_cell_length_a   7.23999346
_cell_length_b   7.23999346
_cell_length_c   7.23999346
_cell_angle_alpha   90.00000000
_cell_angle_beta   90.00000000
_cell_angle_gamma   90.00000000
_symmetry_Int_Tables_number   1
_chemical_formula_structural   NaClO3
_chemical_formula_sum   'Na4 Cl4 O12'
_cell_volume   379.50239557
_cell_formula_units_Z   4
loop_
 _symmetry_equiv_pos_site_id
 _symmetry_equiv_pos_as_xyz
  1  'x, y, z'
loop_
 _atom_site_type_symbol
 _atom_site_label
 _atom_site_symmetry_multiplicity
 _atom_site_fract_x
 _atom_site_fract_y
 _atom_site_fract_z
 _atom_site_occupancy
  Na  Na0  1  0.08197857  0.41802143  0.58197857  1
  Na  Na1  1  0.41802143  0.58197857  0.08197857  1
  Na  Na2  1  0.91802143  0.91802143  0.91802143  1
  Na  Na3  1  0.58197857  0.08197857  0.41802143  1
  Cl  Cl4  1  0.26618316  0.76618316  0.73381684  1
  Cl  Cl5  1  0.76618316  0.73381684  0.26618316  1
  Cl  Cl6  1  0.73381684  0.26618316  0.76618316  1
  Cl  Cl7  1  0.23381684  0.23381684  0.23381684  1
  O  O8  1  0.25033170  0.83890550  0.92889840  1
  O  O9  1  0.42889840  0.24966830  0.16109450  1
  O  O10  1  0.74966830  0.33890550  0.57110160  1
  O  O11  1  0.92889840  0.25033170  0.83890550  1
  O  O12  1  0.07110160  0.75033170  0.66109450  1
  O  O13  1  0.83890550  0.92889840  0.25033170  1
  O  O14  1  0.33890550  0.57110160  0.74966830  1
  O  O15  1  0.75033170  0.66109450  0.07110160  1
  O  O16  1  0.66109450  0.07110160  0.75033170  1
  O  O17  1  0.57110160  0.74966830  0.33890550  1
  O  O18  1  0.16109450  0.42889840  0.24966830  1
  O  O19  1  0.24966830  0.16109450  0.42889840  1
