# generated using pymatgen
data_NiH12(BrO7)2
_symmetry_space_group_name_H-M   'P 1'
_cell_length_a   7.94270656
_cell_length_b   7.94265188
_cell_length_c   5.34306315
_cell_angle_alpha   90.00003900
_cell_angle_beta   89.99915354
_cell_angle_gamma   120.00029044
_symmetry_Int_Tables_number   1
_chemical_formula_structural   NiH12(BrO7)2
_chemical_formula_sum   'Ni1 H12 Br2 O14'
_cell_volume   291.91318671
_cell_formula_units_Z   1
loop_
 _symmetry_equiv_pos_site_id
 _symmetry_equiv_pos_as_xyz
  1  'x, y, z'
loop_
 _atom_site_type_symbol
 _atom_site_label
 _atom_site_symmetry_multiplicity
 _atom_site_fract_x
 _atom_site_fract_y
 _atom_site_fract_z
 _atom_site_occupancy
  Ni  Ni0  1  0.00000000  0.00000000  0.50000000  1
  H  H1  1  0.06680444  0.28512957  0.79150724  1
  H  H2  1  0.21832538  0.93319354  0.79150617  1
  H  H3  1  0.71486847  0.78167462  0.79150513  1
  H  H4  1  0.93319556  0.71487043  0.20849276  1
  H  H5  1  0.78167462  0.06680646  0.20849383  1
  H  H6  1  0.28513153  0.21832538  0.20849487  1
  H  H7  1  0.27064035  0.34554044  0.67539241  1
  H  H8  1  0.07489631  0.72936002  0.67539144  1
  H  H9  1  0.65446571  0.92510152  0.67538936  1
  H  H10  1  0.72935965  0.65445956  0.32460759  1
  H  H11  1  0.92510369  0.27063998  0.32460856  1
  H  H12  1  0.34553429  0.07489848  0.32461064  1
  Br  Br13  1  0.66664488  0.33332259  0.82287723  1
  Br  Br14  1  0.33335512  0.66667741  0.17712277  1
  O  O15  1  0.66661664  0.33330853  0.13076413  1
  O  O16  1  0.33338336  0.66669147  0.86923587  1
  O  O17  1  0.15121808  0.23436715  0.73916616  1
  O  O18  1  0.08314935  0.84878316  0.73916616  1
  O  O19  1  0.76563587  0.91685304  0.73916767  1
  O  O20  1  0.84878192  0.76563285  0.26083384  1
  O  O21  1  0.91685065  0.15121684  0.26083384  1
  O  O22  1  0.23436413  0.08314696  0.26083233  1
  O  O23  1  0.88664091  0.39853072  0.71653727  1
  O  O24  1  0.51186566  0.11333265  0.71650916  1
  O  O25  1  0.60145488  0.48811825  0.71651476  1
  O  O26  1  0.11335909  0.60146928  0.28346273  1
  O  O27  1  0.48813434  0.88666735  0.28349084  1
  O  O28  1  0.39854512  0.51188175  0.28348524  1
