# generated using pymatgen
data_LiCaPO4
_symmetry_space_group_name_H-M   'P 1'
_cell_length_a   7.66702482
_cell_length_b   7.66702482
_cell_length_c   10.05235277
_cell_angle_alpha   90.00000000
_cell_angle_beta   90.00000000
_cell_angle_gamma   119.99999998
_symmetry_Int_Tables_number   1
_chemical_formula_structural   LiCaPO4
_chemical_formula_sum   'Li6 Ca6 P6 O24'
_cell_volume   511.74321277
_cell_formula_units_Z   6
loop_
 _symmetry_equiv_pos_site_id
 _symmetry_equiv_pos_as_xyz
  1  'x, y, z'
loop_
 _atom_site_type_symbol
 _atom_site_label
 _atom_site_symmetry_multiplicity
 _atom_site_fract_x
 _atom_site_fract_y
 _atom_site_fract_z
 _atom_site_occupancy
  Li  Li0  1  0.03994473  0.23762985  0.25630963  1
  Li  Li1  1  0.76237015  0.80231488  0.25630963  1
  Li  Li2  1  0.19768512  0.96005527  0.25630963  1
  Li  Li3  1  0.23762985  0.03994473  0.75630963  1
  Li  Li4  1  0.80231488  0.76237015  0.75630963  1
  Li  Li5  1  0.96005527  0.19768512  0.75630963  1
  O  O6  1  0.76744364  0.55075174  0.62812367  1
  O  O7  1  0.52308441  0.66610564  0.80762702  1
  O  O8  1  0.33389436  0.85697877  0.80762702  1
  O  O9  1  0.14302123  0.47691559  0.80762702  1
  O  O10  1  0.66610564  0.52308441  0.30762702  1
  O  O11  1  0.85697877  0.33389436  0.30762702  1
  O  O12  1  0.47691559  0.14302123  0.30762702  1
  O  O13  1  0.78330810  0.23255636  0.62812367  1
  O  O14  1  0.66666667  0.33333333  0.84021565  1
  O  O15  1  0.44924826  0.21669190  0.62812367  1
  O  O16  1  0.23255636  0.78330810  0.12812367  1
  O  O17  1  0.55075174  0.76744364  0.12812367  1
  O  O18  1  0.00000000  0.00000000  0.15481784  1
  O  O19  1  0.00000000  0.00000000  0.65481784  1
  O  O20  1  0.33333333  0.66666667  0.34021565  1
  O  O21  1  0.22106130  0.12506188  0.94565641  1
  O  O22  1  0.66666667  0.33333333  0.10121936  1
  O  O23  1  0.33333333  0.66666667  0.60121936  1
  O  O24  1  0.77893870  0.90400058  0.44565641  1
  O  O25  1  0.87493812  0.09599942  0.94565641  1
  O  O26  1  0.90400058  0.77893870  0.94565641  1
  O  O27  1  0.12506188  0.22106130  0.44565641  1
  O  O28  1  0.09599942  0.87493812  0.44565641  1
  O  O29  1  0.21669190  0.44924826  0.12812367  1
  P  P30  1  0.00000000  0.00000000  0.99964785  1
  P  P31  1  0.33333333  0.66666667  0.75720384  1
  P  P32  1  0.66666667  0.33333333  0.25720384  1
  P  P33  1  0.66666667  0.33333333  0.68588444  1
  P  P34  1  0.33333333  0.66666667  0.18588444  1
  P  P35  1  0.00000000  0.00000000  0.49964785  1
  Ca  Ca36  1  0.01948109  0.54166720  0.48535361  1
  Ca  Ca37  1  0.98051891  0.52218611  0.98535361  1
  Ca  Ca38  1  0.47781389  0.45833280  0.98535361  1
  Ca  Ca39  1  0.54166720  0.01948109  0.98535361  1
  Ca  Ca40  1  0.52218611  0.98051891  0.48535361  1
  Ca  Ca41  1  0.45833280  0.47781389  0.48535361  1
