# generated using pymatgen
data_Be3Cd4Si3TeO12
_symmetry_space_group_name_H-M   'P 1'
_cell_length_a   8.68419467
_cell_length_b   8.68419467
_cell_length_c   8.68419467
_cell_angle_alpha   90.00000000
_cell_angle_beta   90.00000000
_cell_angle_gamma   90.00000000
_symmetry_Int_Tables_number   1
_chemical_formula_structural   Be3Cd4Si3TeO12
_chemical_formula_sum   'Be6 Cd8 Si6 Te2 O24'
_cell_volume   654.92059977
_cell_formula_units_Z   2
loop_
 _symmetry_equiv_pos_site_id
 _symmetry_equiv_pos_as_xyz
  1  'x, y, z'
loop_
 _atom_site_type_symbol
 _atom_site_label
 _atom_site_symmetry_multiplicity
 _atom_site_fract_x
 _atom_site_fract_y
 _atom_site_fract_z
 _atom_site_occupancy
  Be  Be0  1  0.25000000  0.50000000  0.00000000  1
  Be  Be1  1  0.50000000  0.00000000  0.75000000  1
  Be  Be2  1  0.50000000  0.00000000  0.25000000  1
  Be  Be3  1  0.00000000  0.25000000  0.50000000  1
  Be  Be4  1  0.00000000  0.75000000  0.50000000  1
  Be  Be5  1  0.75000000  0.50000000  0.00000000  1
  O  O6  1  0.85385651  0.43769973  0.85384683  1
  O  O7  1  0.85385651  0.56230027  0.14615317  1
  O  O8  1  0.43769973  0.85384683  0.85385651  1
  O  O9  1  0.56230027  0.85384683  0.14614349  1
  O  O10  1  0.85384683  0.85385651  0.43769973  1
  O  O11  1  0.14615317  0.14614349  0.43769973  1
  O  O12  1  0.35385651  0.35384683  0.93769973  1
  O  O13  1  0.14614349  0.43769973  0.14615317  1
  O  O14  1  0.14614349  0.56230027  0.85384683  1
  O  O15  1  0.56230027  0.14615317  0.85385651  1
  O  O16  1  0.43769973  0.14615317  0.14614349  1
  O  O17  1  0.85384683  0.14614349  0.56230027  1
  O  O18  1  0.14615317  0.85385651  0.56230027  1
  O  O19  1  0.93769973  0.35385651  0.35384683  1
  O  O20  1  0.35384683  0.93769973  0.35385651  1
  O  O21  1  0.64615317  0.06230027  0.35385651  1
  O  O22  1  0.93769973  0.64614349  0.64615317  1
  O  O23  1  0.64615317  0.93769973  0.64614349  1
  O  O24  1  0.06230027  0.64614349  0.35384683  1
  O  O25  1  0.06230027  0.35385651  0.64615317  1
  O  O26  1  0.35384683  0.06230027  0.64614349  1
  O  O27  1  0.35385651  0.64615317  0.06230027  1
  O  O28  1  0.64614349  0.35384683  0.06230027  1
  O  O29  1  0.64614349  0.64615317  0.93769973  1
  Si  Si30  1  0.75000000  0.00000000  0.50000000  1
  Si  Si31  1  0.50000000  0.75000000  0.00000000  1
  Si  Si32  1  0.50000000  0.25000000  0.00000000  1
  Si  Si33  1  0.00000000  0.50000000  0.25000000  1
  Si  Si34  1  0.00000000  0.50000000  0.75000000  1
  Si  Si35  1  0.25000000  0.00000000  0.50000000  1
  Cd  Cd36  1  0.18469028  0.18469028  0.18469028  1
  Cd  Cd37  1  0.31530972  0.68469028  0.31530972  1
  Cd  Cd38  1  0.31530972  0.31530972  0.68469028  1
  Cd  Cd39  1  0.68469028  0.31530972  0.31530972  1
  Cd  Cd40  1  0.81530972  0.81530972  0.18469028  1
  Cd  Cd41  1  0.18469028  0.81530972  0.81530972  1
  Cd  Cd42  1  0.81530972  0.18469028  0.81530972  1
  Cd  Cd43  1  0.68469028  0.68469028  0.68469028  1
  Te  Te44  1  0.00000000  0.00000000  0.00000000  1
  Te  Te45  1  0.50000000  0.50000000  0.50000000  1
