# generated using pymatgen
data_Mn(HO)2
_symmetry_space_group_name_H-M   'P 1'
_cell_length_a   3.37717655
_cell_length_b   3.37010871
_cell_length_c   5.00514470
_cell_angle_alpha   92.05471919
_cell_angle_beta   95.54903070
_cell_angle_gamma   119.97516478
_symmetry_Int_Tables_number   1
_chemical_formula_structural   Mn(HO)2
_chemical_formula_sum   'Mn1 H2 O2'
_cell_volume   48.88035344
_cell_formula_units_Z   1
loop_
 _symmetry_equiv_pos_site_id
 _symmetry_equiv_pos_as_xyz
  1  'x, y, z'
loop_
 _atom_site_type_symbol
 _atom_site_label
 _atom_site_symmetry_multiplicity
 _atom_site_fract_x
 _atom_site_fract_y
 _atom_site_fract_z
 _atom_site_occupancy
  Mn  Mn0  1  0.00585938  0.95428297  0.97689983  1
  H  H1  1  0.58133415  0.15110401  0.56899461  1
  H  H2  1  0.44931770  0.60436879  0.38403232  1
  O  O3  1  0.62000313  0.24473294  0.76079078  1
  O  O4  1  0.40600764  0.66939330  0.19888847  1
