# generated using pymatgen
data_Li4TiS4
_symmetry_space_group_name_H-M   'P 1'
_cell_length_a   5.86897769
_cell_length_b   6.89287522
_cell_length_c   5.86897769
_cell_angle_alpha   64.80325374
_cell_angle_beta   90.00000000
_cell_angle_gamma   115.19674626
_symmetry_Int_Tables_number   1
_chemical_formula_structural   Li4TiS4
_chemical_formula_sum   'Li4 Ti1 S4'
_cell_volume   189.56988420
_cell_formula_units_Z   1
loop_
 _symmetry_equiv_pos_site_id
 _symmetry_equiv_pos_as_xyz
  1  'x, y, z'
loop_
 _atom_site_type_symbol
 _atom_site_label
 _atom_site_symmetry_multiplicity
 _atom_site_fract_x
 _atom_site_fract_y
 _atom_site_fract_z
 _atom_site_occupancy
  Li  Li0  1  0.50000000  0.00000000  0.00000000  1
  Li  Li1  1  0.00000000  0.00000000  0.50000000  1
  Li  Li2  1  0.72523325  0.45046749  0.27476675  1
  Li  Li3  1  0.27476675  0.54953251  0.72523325  1
  Ti  Ti4  1  0.00000000  0.00000000  0.00000000  1
  S  S5  1  0.34135670  0.23808694  0.10326975  1
  S  S6  1  0.65864330  0.76191306  0.34135670  1
  S  S7  1  0.89673025  0.23808694  0.65864330  1
  S  S8  1  0.10326975  0.76191306  0.89673025  1
