# generated using pymatgen
data_Be(HO)2
_symmetry_space_group_name_H-M   'P 1'
_cell_length_a   5.79268504
_cell_length_b   4.84435080
_cell_length_c   4.83632149
_cell_angle_alpha   90.00000000
_cell_angle_beta   90.00000000
_cell_angle_gamma   90.00000000
_symmetry_Int_Tables_number   1
_chemical_formula_structural   Be(HO)2
_chemical_formula_sum   'Be4 H8 O8'
_cell_volume   135.71587869
_cell_formula_units_Z   4
loop_
 _symmetry_equiv_pos_site_id
 _symmetry_equiv_pos_as_xyz
  1  'x, y, z'
loop_
 _atom_site_type_symbol
 _atom_site_label
 _atom_site_symmetry_multiplicity
 _atom_site_fract_x
 _atom_site_fract_y
 _atom_site_fract_z
 _atom_site_occupancy
  Be  Be0  1  0.87518426  0.57824680  0.17474852  1
  Be  Be1  1  0.62481574  0.42175320  0.67474852  1
  Be  Be2  1  0.37518426  0.92175320  0.82525148  1
  Be  Be3  1  0.12481574  0.07824680  0.32525148  1
  H  H4  1  0.54740571  0.33674327  0.25254543  1
  H  H5  1  0.95259429  0.66325673  0.75254543  1
  H  H6  1  0.04740571  0.16325673  0.74745457  1
  H  H7  1  0.45259429  0.83674327  0.24745457  1
  H  H8  1  0.80924464  0.99569192  0.05717251  1
  H  H9  1  0.69075536  0.00430808  0.55717251  1
  H  H10  1  0.30924464  0.50430808  0.94282749  1
  H  H11  1  0.19075536  0.49569192  0.44282749  1
  O  O12  1  0.63996606  0.48387471  0.33952651  1
  O  O13  1  0.86003394  0.51612529  0.83952651  1
  O  O14  1  0.13996606  0.01612529  0.66047349  1
  O  O15  1  0.36003394  0.98387471  0.16047349  1
  O  O16  1  0.89323896  0.91657460  0.21554026  1
  O  O17  1  0.60676104  0.08342540  0.71554026  1
  O  O18  1  0.39323896  0.58342540  0.78445974  1
  O  O19  1  0.10676104  0.41657460  0.28445974  1
