# generated using pymatgen
data_LiMn2F6
_symmetry_space_group_name_H-M   'P 1'
_cell_length_a   5.61874637
_cell_length_b   5.29433822
_cell_length_c   4.55140653
_cell_angle_alpha   90.77905862
_cell_angle_beta   88.09540999
_cell_angle_gamma   122.06687722
_symmetry_Int_Tables_number   1
_chemical_formula_structural   LiMn2F6
_chemical_formula_sum   'Li1 Mn2 F6'
_cell_volume   114.67139670
_cell_formula_units_Z   1
loop_
 _symmetry_equiv_pos_site_id
 _symmetry_equiv_pos_as_xyz
  1  'x, y, z'
loop_
 _atom_site_type_symbol
 _atom_site_label
 _atom_site_symmetry_multiplicity
 _atom_site_fract_x
 _atom_site_fract_y
 _atom_site_fract_z
 _atom_site_occupancy
  Li  Li0  1  0.00973705  0.01795165  0.99328518  1
  Mn  Mn1  1  0.32360514  0.64381428  0.49593933  1
  Mn  Mn2  1  0.67127559  0.33897684  0.49443400  1
  F  F3  1  0.96876980  0.63996894  0.71836547  1
  F  F4  1  0.99575923  0.33181194  0.24735424  1
  F  F5  1  0.33612474  0.32681569  0.74140984  1
  F  F6  1  0.38059071  0.02823375  0.27224209  1
  F  F7  1  0.67324517  0.64078706  0.26997070  1
  F  F8  1  0.65195458  0.02681884  0.71798515  1
