# generated using pymatgen
data_SiO2
_symmetry_space_group_name_H-M   'P 1'
_cell_length_a   7.23926663
_cell_length_b   7.23926663
_cell_length_c   12.20666691
_cell_angle_alpha   90.00000000
_cell_angle_beta   90.00000000
_cell_angle_gamma   90.00000000
_symmetry_Int_Tables_number   1
_chemical_formula_structural   SiO2
_chemical_formula_sum   'Si10 O20'
_cell_volume   639.71456498
_cell_formula_units_Z   10
loop_
 _symmetry_equiv_pos_site_id
 _symmetry_equiv_pos_as_xyz
  1  'x, y, z'
loop_
 _atom_site_type_symbol
 _atom_site_label
 _atom_site_symmetry_multiplicity
 _atom_site_fract_x
 _atom_site_fract_y
 _atom_site_fract_z
 _atom_site_occupancy
  Si  Si0  1  0.00000000  0.00000000  0.00000000  1
  Si  Si1  1  0.50000000  0.50000000  0.50000000  1
  Si  Si2  1  0.20640248  0.00000000  0.78858385  1
  Si  Si3  1  0.00000000  0.79359752  0.21141615  1
  Si  Si4  1  0.00000000  0.20640248  0.21141615  1
  Si  Si5  1  0.79359752  0.00000000  0.78858385  1
  Si  Si6  1  0.70640248  0.50000000  0.28858385  1
  Si  Si7  1  0.50000000  0.29359752  0.71141615  1
  Si  Si8  1  0.50000000  0.70640248  0.71141615  1
  Si  Si9  1  0.29359752  0.50000000  0.28858385  1
  O  O10  1  0.00000000  0.18389774  0.07772062  1
  O  O11  1  0.18389774  0.00000000  0.92227938  1
  O  O12  1  0.81610226  0.00000000  0.92227938  1
  O  O13  1  0.00000000  0.81610226  0.07772062  1
  O  O14  1  0.50000000  0.68389774  0.57772062  1
  O  O15  1  0.68389774  0.50000000  0.42227938  1
  O  O16  1  0.31610226  0.50000000  0.42227938  1
  O  O17  1  0.50000000  0.31610226  0.57772062  1
  O  O18  1  0.00000000  0.00000000  0.73482290  1
  O  O19  1  0.00000000  0.00000000  0.26517710  1
  O  O20  1  0.50000000  0.50000000  0.23482290  1
  O  O21  1  0.50000000  0.50000000  0.76517710  1
  O  O22  1  0.31606051  0.81606051  0.75000000  1
  O  O23  1  0.81606051  0.68393949  0.25000000  1
  O  O24  1  0.18393949  0.31606051  0.25000000  1
  O  O25  1  0.68393949  0.18393949  0.75000000  1
  O  O26  1  0.81606051  0.31606051  0.25000000  1
  O  O27  1  0.18393949  0.68393949  0.25000000  1
  O  O28  1  0.68393949  0.81606051  0.75000000  1
  O  O29  1  0.31606051  0.18393949  0.75000000  1
