# generated using pymatgen
data_Tb2PbS4
_symmetry_space_group_name_H-M   'P 1'
_cell_length_a   7.39358410
_cell_length_b   7.39358466
_cell_length_c   7.39358485
_cell_angle_alpha   109.33797811
_cell_angle_beta   109.33797976
_cell_angle_gamma   109.73803971
_symmetry_Int_Tables_number   1
_chemical_formula_structural   Tb2PbS4
_chemical_formula_sum   'Tb4 Pb2 S8'
_cell_volume   311.12588083
_cell_formula_units_Z   2
loop_
 _symmetry_equiv_pos_site_id
 _symmetry_equiv_pos_as_xyz
  1  'x, y, z'
loop_
 _atom_site_type_symbol
 _atom_site_label
 _atom_site_symmetry_multiplicity
 _atom_site_fract_x
 _atom_site_fract_y
 _atom_site_fract_z
 _atom_site_occupancy
  Tb  Tb0  1  0.12064310  0.75000000  0.87064310  1
  Tb  Tb1  1  0.25000000  0.62064310  0.37064310  1
  Tb  Tb2  1  0.37935690  0.25000000  0.62935690  1
  Tb  Tb3  1  0.75000000  0.87935690  0.12935690  1
  Pb  Pb4  1  0.62500000  0.37500000  0.25000000  1
  Pb  Pb5  1  0.87500000  0.12500000  0.75000000  1
  S  S6  1  0.01304085  0.86157077  0.49510581  1
  S  S7  1  0.13842923  0.13353504  0.15147008  1
  S  S8  1  0.36157077  0.51304085  0.99510581  1
  S  S9  1  0.63353504  0.63842923  0.65147008  1
  S  S10  1  0.48695915  0.98206497  0.84852992  1
  S  S11  1  0.48206497  0.98695915  0.34852992  1
  S  S12  1  0.86646496  0.51793503  0.00489419  1
  S  S13  1  0.01793503  0.36646496  0.50489419  1
