# generated using pymatgen
data_La3CuGeSe7
_symmetry_space_group_name_H-M   'P 1'
_cell_length_a   10.79111016
_cell_length_b   10.79110976
_cell_length_c   6.20608164
_cell_angle_alpha   90.00000000
_cell_angle_beta   90.00000000
_cell_angle_gamma   120.00000128
_symmetry_Int_Tables_number   1
_chemical_formula_structural   La3CuGeSe7
_chemical_formula_sum   'La6 Cu2 Ge2 Se14'
_cell_volume   625.86454022
_cell_formula_units_Z   2
loop_
 _symmetry_equiv_pos_site_id
 _symmetry_equiv_pos_as_xyz
  1  'x, y, z'
loop_
 _atom_site_type_symbol
 _atom_site_label
 _atom_site_symmetry_multiplicity
 _atom_site_fract_x
 _atom_site_fract_y
 _atom_site_fract_z
 _atom_site_occupancy
  La  La0  1  0.22604349  0.35537910  0.85245997  1
  La  La1  1  0.87066439  0.22604349  0.35245997  1
  La  La2  1  0.35537910  0.12933561  0.35245997  1
  La  La3  1  0.64462090  0.87066439  0.85245997  1
  La  La4  1  0.12933561  0.77395651  0.85245997  1
  La  La5  1  0.77395651  0.64462090  0.35245997  1
  Cu  Cu6  1  0.00000000  0.00000000  0.82274933  1
  Cu  Cu7  1  0.00000000  0.00000000  0.32274933  1
  Ge  Ge8  1  0.33333300  0.66666700  0.43672984  1
  Ge  Ge9  1  0.66666700  0.33333300  0.93672984  1
  Se  Se10  1  0.33333300  0.66666700  0.05638899  1
  Se  Se11  1  0.66666700  0.33333300  0.55638899  1
  Se  Se12  1  0.90788681  0.16096276  0.83673904  1
  Se  Se13  1  0.74692405  0.90788681  0.33673904  1
  Se  Se14  1  0.16096276  0.25307595  0.33673904  1
  Se  Se15  1  0.83903724  0.74692405  0.83673904  1
  Se  Se16  1  0.25307595  0.09211319  0.83673904  1
  Se  Se17  1  0.09211319  0.83903724  0.33673904  1
  Se  Se18  1  0.10009312  0.51970915  0.59047827  1
  Se  Se19  1  0.58038397  0.10009312  0.09047827  1
  Se  Se20  1  0.51970915  0.41961603  0.09047827  1
  Se  Se21  1  0.48029085  0.58038397  0.59047827  1
  Se  Se22  1  0.41961603  0.89990688  0.59047827  1
  Se  Se23  1  0.89990688  0.48029085  0.09047827  1
