# generated using pymatgen
data_Nd3CuGeS7
_symmetry_space_group_name_H-M   'P 1'
_cell_length_a   10.20283225
_cell_length_b   10.20283211
_cell_length_c   5.86961337
_cell_angle_alpha   90.00000000
_cell_angle_beta   90.00000000
_cell_angle_gamma   120.00000046
_symmetry_Int_Tables_number   1
_chemical_formula_structural   Nd3CuGeS7
_chemical_formula_sum   'Nd6 Cu2 Ge2 S14'
_cell_volume   529.15342496
_cell_formula_units_Z   2
loop_
 _symmetry_equiv_pos_site_id
 _symmetry_equiv_pos_as_xyz
  1  'x, y, z'
loop_
 _atom_site_type_symbol
 _atom_site_label
 _atom_site_symmetry_multiplicity
 _atom_site_fract_x
 _atom_site_fract_y
 _atom_site_fract_z
 _atom_site_occupancy
  Nd  Nd0  1  0.22851670  0.87222417  0.75034335  1
  Nd  Nd1  1  0.35629253  0.22851670  0.25034335  1
  Nd  Nd2  1  0.77148330  0.12777583  0.25034335  1
  Nd  Nd3  1  0.12777583  0.35629253  0.75034335  1
  Nd  Nd4  1  0.87222417  0.64370747  0.25034335  1
  Nd  Nd5  1  0.64370747  0.77148330  0.75034335  1
  Cu  Cu6  1  0.00000000  0.00000000  0.21877453  1
  Cu  Cu7  1  0.00000000  0.00000000  0.71877453  1
  Ge  Ge8  1  0.66666700  0.33333300  0.83228983  1
  Ge  Ge9  1  0.33333300  0.66666700  0.33228983  1
  S  S10  1  0.83837527  0.09107654  0.73141593  1
  S  S11  1  0.90892346  0.74729872  0.73141593  1
  S  S12  1  0.16162473  0.90892346  0.23141593  1
  S  S13  1  0.89619299  0.41676456  0.98710548  1
  S  S14  1  0.33333300  0.66666700  0.95704137  1
  S  S15  1  0.66666700  0.33333300  0.45704137  1
  S  S16  1  0.74729872  0.83837527  0.23141593  1
  S  S17  1  0.47942844  0.89619299  0.48710548  1
  S  S18  1  0.41676456  0.52057156  0.48710548  1
  S  S19  1  0.52057156  0.10380701  0.98710548  1
  S  S20  1  0.58323544  0.47942844  0.98710548  1
  S  S21  1  0.09107654  0.25270128  0.23141593  1
  S  S22  1  0.25270128  0.16162473  0.73141593  1
  S  S23  1  0.10380701  0.58323544  0.48710548  1
