# generated using pymatgen
data_PbO
_symmetry_space_group_name_H-M   'P 1'
_cell_length_a   5.95511950
_cell_length_b   5.79079045
_cell_length_c   5.45169981
_cell_angle_alpha   89.99570024
_cell_angle_beta   89.99606298
_cell_angle_gamma   90.00050611
_symmetry_Int_Tables_number   1
_chemical_formula_structural   PbO
_chemical_formula_sum   'Pb4 O4'
_cell_volume   188.00104463
_cell_formula_units_Z   4
loop_
 _symmetry_equiv_pos_site_id
 _symmetry_equiv_pos_as_xyz
  1  'x, y, z'
loop_
 _atom_site_type_symbol
 _atom_site_label
 _atom_site_symmetry_multiplicity
 _atom_site_fract_x
 _atom_site_fract_y
 _atom_site_fract_z
 _atom_site_occupancy
  O  O0  1  0.61551333  0.88432754  0.13295041  1
  O  O1  1  0.38444994  0.38432856  0.13298237  1
  Pb  Pb2  1  0.72136326  0.52591412  0.24751583  1
  O  O3  1  0.61558685  0.61566153  0.63297360  1
  Pb  Pb4  1  0.27861020  0.02590630  0.24755819  1
  Pb  Pb5  1  0.27864292  0.47410050  0.74753022  1
  Pb  Pb6  1  0.72136661  0.97409967  0.74751199  1
  O  O7  1  0.38446689  0.11566178  0.63297739  1
