# generated using pymatgen
data_Sr3SiO5
_symmetry_space_group_name_H-M   'P 1'
_cell_length_a   6.94945402
_cell_length_b   6.94945402
_cell_length_c   7.34293338
_cell_angle_alpha   118.24266791
_cell_angle_beta   118.24266791
_cell_angle_gamma   90.00000000
_symmetry_Int_Tables_number   1
_chemical_formula_structural   Sr3SiO5
_chemical_formula_sum   'Sr6 Si2 O10'
_cell_volume   263.51154751
_cell_formula_units_Z   2
loop_
 _symmetry_equiv_pos_site_id
 _symmetry_equiv_pos_as_xyz
  1  'x, y, z'
loop_
 _atom_site_type_symbol
 _atom_site_label
 _atom_site_symmetry_multiplicity
 _atom_site_fract_x
 _atom_site_fract_y
 _atom_site_fract_z
 _atom_site_occupancy
  Sr  Sr0  1  0.00000000  0.50000000  0.00000000  1
  Sr  Sr1  1  0.50000000  0.00000000  0.00000000  1
  Sr  Sr2  1  0.56659709  0.56659709  0.50000100  1
  Sr  Sr3  1  0.93340391  0.93340391  0.50000100  1
  Sr  Sr4  1  0.06659709  0.43340391  0.50000100  1
  Sr  Sr5  1  0.43340391  0.06659709  0.50000100  1
  Si  Si6  1  0.99999900  0.99999900  0.99999900  1
  Si  Si7  1  0.49999900  0.49999900  0.99999900  1
  O  O8  1  0.75000100  0.25000100  0.50000100  1
  O  O9  1  0.25000100  0.75000100  0.50000100  1
  O  O10  1  0.77488318  0.04053712  0.81542030  1
  O  O11  1  0.04053712  0.77488218  0.81542030  1
  O  O12  1  0.95946188  0.95946288  0.18457970  1
  O  O13  1  0.22511682  0.22511682  0.18457970  1
  O  O14  1  0.45946188  0.72511682  0.18457970  1
  O  O15  1  0.72511682  0.45946288  0.18457970  1
  O  O16  1  0.54053712  0.54053712  0.81542030  1
  O  O17  1  0.27488318  0.27488218  0.81542030  1
