# generated using pymatgen
data_Zn(HO)2
_symmetry_space_group_name_H-M   'P 1'
_cell_length_a   3.22582605
_cell_length_b   3.32586273
_cell_length_c   4.58002882
_cell_angle_alpha   89.99999996
_cell_angle_beta   91.39349738
_cell_angle_gamma   121.03125805
_symmetry_Int_Tables_number   1
_chemical_formula_structural   Zn(HO)2
_chemical_formula_sum   'Zn1 H2 O2'
_cell_volume   42.08832579
_cell_formula_units_Z   1
loop_
 _symmetry_equiv_pos_site_id
 _symmetry_equiv_pos_as_xyz
  1  'x, y, z'
loop_
 _atom_site_type_symbol
 _atom_site_label
 _atom_site_symmetry_multiplicity
 _atom_site_fract_x
 _atom_site_fract_y
 _atom_site_fract_z
 _atom_site_occupancy
  Zn  Zn0  1  0.00000000  0.98345331  0.00000000  1
  H  H1  1  0.56506638  0.43787001  0.56904872  1
  H  H2  1  0.43493362  0.87280463  0.43095128  1
  O  O3  1  0.60683738  0.33651871  0.76348524  1
  O  O4  1  0.39316262  0.72968133  0.23651476  1
