# generated using pymatgen
data_SiH8(NF3)2
_symmetry_space_group_name_H-M   'P 1'
_cell_length_a   5.93892096
_cell_length_b   5.93893457
_cell_length_c   9.62094114
_cell_angle_alpha   89.99990525
_cell_angle_beta   90.00012490
_cell_angle_gamma   120.00083316
_symmetry_Int_Tables_number   1
_chemical_formula_structural   SiH8(NF3)2
_chemical_formula_sum   'Si2 H16 N4 F12'
_cell_volume   293.87363770
_cell_formula_units_Z   2
loop_
 _symmetry_equiv_pos_site_id
 _symmetry_equiv_pos_as_xyz
  1  'x, y, z'
loop_
 _atom_site_type_symbol
 _atom_site_label
 _atom_site_symmetry_multiplicity
 _atom_site_fract_x
 _atom_site_fract_y
 _atom_site_fract_z
 _atom_site_occupancy
  Si  Si0  1  0.33333595  0.66667095  0.24813353  1
  Si  Si1  1  0.66666643  0.33333359  0.74813523  1
  H  H2  1  0.09461670  0.90538395  0.54641288  1
  H  H3  1  0.14444232  0.57222052  0.90471521  1
  H  H4  1  -0.00000013  0.00000020  0.18825912  1
  H  H5  1  0.00000006  -0.00000003  0.68825935  1
  H  H6  1  0.09461815  0.18923437  0.54641273  1
  H  H7  1  0.33333067  0.66666172  0.76289710  1
  H  H8  1  0.42777950  0.85555649  0.90471230  1
  H  H9  1  0.18923517  0.09461832  0.04641280  1
  H  H10  1  0.42777730  0.57222169  0.90471535  1
  H  H11  1  0.57222252  0.42777757  0.40471237  1
  H  H12  1  0.81076468  0.90538182  0.54641265  1
  H  H13  1  0.90538157  0.81076564  0.04641284  1
  H  H14  1  0.57222124  0.14444330  0.40471511  1
  H  H15  1  0.66666910  0.33333086  0.26289692  1
  H  H16  1  0.85555761  0.42777883  0.40471510  1
  H  H17  1  0.90538308  0.09461606  0.04641294  1
  N  N18  1  -0.00000064  0.00000039  0.08126620  1
  N  N19  1  0.99999977  0.00000037  0.58126608  1
  N  N20  1  0.33333333  0.66666481  0.86976428  1
  N  N21  1  0.66666831  0.33333304  0.36976469  1
  F  F22  1  0.19637330  0.80363883  0.35264971  1
  F  F23  1  0.05968114  0.52984386  0.14607668  1
  F  F24  1  0.47016217  0.94032419  0.14607486  1
  F  F25  1  0.19636246  0.39272512  0.35264390  1
  F  F26  1  0.47016133  0.52985076  0.14607152  1
  F  F27  1  0.60727938  0.80364142  0.35264609  1
  F  F28  1  0.39272582  0.19635871  0.85264514  1
  F  F29  1  0.52983707  0.47015560  0.64607540  1
  F  F30  1  0.80363928  0.60727449  0.85264508  1
  F  F31  1  0.52984243  0.05968204  0.64607558  1
  F  F32  1  0.94031831  0.47016548  0.64607507  1
  F  F33  1  0.80363159  0.19636105  0.85264721  1
