# generated using pymatgen
data_LiAs(HO2)2
_symmetry_space_group_name_H-M   'P 1'
_cell_length_a   6.59029118
_cell_length_b   7.36320631
_cell_length_c   7.84564849
_cell_angle_alpha   90.00000000
_cell_angle_beta   90.00000000
_cell_angle_gamma   90.00000000
_symmetry_Int_Tables_number   1
_chemical_formula_structural   LiAs(HO2)2
_chemical_formula_sum   'Li4 As4 H8 O16'
_cell_volume   380.71537782
_cell_formula_units_Z   4
loop_
 _symmetry_equiv_pos_site_id
 _symmetry_equiv_pos_as_xyz
  1  'x, y, z'
loop_
 _atom_site_type_symbol
 _atom_site_label
 _atom_site_symmetry_multiplicity
 _atom_site_fract_x
 _atom_site_fract_y
 _atom_site_fract_z
 _atom_site_occupancy
  H  H0  1  0.01878972  0.67793248  0.13535486  1
  H  H1  1  0.98121028  0.17793248  0.86464514  1
  H  H2  1  0.48121028  0.17793248  0.63535486  1
  H  H3  1  0.51878972  0.67793248  0.36464514  1
  H  H4  1  0.99012283  0.45092818  0.37115260  1
  H  H5  1  0.00987717  0.95092818  0.62884740  1
  H  H6  1  0.49012283  0.45092818  0.12884740  1
  H  H7  1  0.50987717  0.95092818  0.87115260  1
  Li  Li8  1  0.51891168  0.00676975  0.21159582  1
  Li  Li9  1  0.01891168  0.00676975  0.28840418  1
  Li  Li10  1  0.98108832  0.50676975  0.71159582  1
  Li  Li11  1  0.48108832  0.50676975  0.78840418  1
  O  O12  1  0.21778300  0.63634661  0.81203028  1
  O  O13  1  0.42573601  0.49915308  0.30879720  1
  O  O14  1  0.56256288  0.41302512  0.01647095  1
  O  O15  1  0.43743712  0.91302512  0.98352905  1
  O  O16  1  0.57426399  0.99915308  0.69120280  1
  O  O17  1  0.93743712  0.91302512  0.51647095  1
  O  O18  1  0.92573601  0.49915308  0.19120280  1
  O  O19  1  0.07426399  0.99915308  0.80879720  1
  O  O20  1  0.58146193  0.80635075  0.38027888  1
  O  O21  1  0.08146193  0.80635075  0.11972112  1
  O  O22  1  0.91853807  0.30635075  0.88027888  1
  O  O23  1  0.41853807  0.30635075  0.61972112  1
  O  O24  1  0.28221700  0.13634661  0.31203028  1
  O  O25  1  0.71778300  0.63634661  0.68796972  1
  O  O26  1  0.06256288  0.41302512  0.48352905  1
  O  O27  1  0.78221700  0.13634661  0.18796972  1
  As  As28  1  0.19652711  0.83362403  0.91928186  1
  As  As29  1  0.80347289  0.33362403  0.08071814  1
  As  As30  1  0.30347289  0.33362403  0.41928186  1
  As  As31  1  0.69652711  0.83362403  0.58071814  1
