# generated using pymatgen
data_HgH12(ClO7)2
_symmetry_space_group_name_H-M   'P 1'
_cell_length_a   7.91239401
_cell_length_b   7.91245677
_cell_length_c   5.68832605
_cell_angle_alpha   90.00001573
_cell_angle_beta   90.00044139
_cell_angle_gamma   120.00027381
_symmetry_Int_Tables_number   1
_chemical_formula_structural   HgH12(ClO7)2
_chemical_formula_sum   'Hg1 H12 Cl2 O14'
_cell_volume   308.41335151
_cell_formula_units_Z   1
loop_
 _symmetry_equiv_pos_site_id
 _symmetry_equiv_pos_as_xyz
  1  'x, y, z'
loop_
 _atom_site_type_symbol
 _atom_site_label
 _atom_site_symmetry_multiplicity
 _atom_site_fract_x
 _atom_site_fract_y
 _atom_site_fract_z
 _atom_site_occupancy
  Hg  Hg0  1  0.00000000  0.00000000  0.00000000  1
  H  H1  1  0.34778243  0.27352646  0.26945286  1
  H  H2  1  0.92574722  0.65221109  0.26945553  1
  H  H3  1  0.72647149  0.07425832  0.26945694  1
  H  H4  1  0.34778244  0.07425597  0.26945285  1
  H  H5  1  0.72647133  0.65221305  0.26945690  1
  H  H6  1  0.92574718  0.27353597  0.26945550  1
  H  H7  1  0.65221757  0.72647354  0.73054714  1
  H  H8  1  0.07425278  0.34778891  0.73054447  1
  H  H9  1  0.27352851  0.92574168  0.73054306  1
  H  H10  1  0.65221756  0.92574403  0.73054715  1
  H  H11  1  0.27352867  0.34778695  0.73054310  1
  H  H12  1  0.07425282  0.72646403  0.73054450  1
  Cl  Cl13  1  0.66665912  0.33332942  0.80438303  1
  Cl  Cl14  1  0.33334088  0.66667058  0.19561697  1
  O  O15  1  0.26333398  0.13166704  0.27743453  1
  O  O16  1  0.86832465  0.73665777  0.27742871  1
  O  O17  1  0.86832483  0.13166687  0.27742875  1
  O  O18  1  0.73666602  0.86833296  0.72256547  1
  O  O19  1  0.13167535  0.26334223  0.72257129  1
  O  O20  1  0.13167517  0.86833313  0.72257125  1
  O  O21  1  0.86770226  0.43385119  0.71522516  1
  O  O22  1  0.56611989  0.13226557  0.71520678  1
  O  O23  1  0.56611974  0.43385450  0.71520698  1
  O  O24  1  0.13229774  0.56614881  0.28477484  1
  O  O25  1  0.43388011  0.86773443  0.28479322  1
  O  O26  1  0.43388026  0.56614550  0.28479302  1
  O  O27  1  0.66664372  0.33332208  0.05975656  1
  O  O28  1  0.33335628  0.66667792  0.94024344  1
