# generated using pymatgen
data_Li2MnF4
_symmetry_space_group_name_H-M   'P 1'
_cell_length_a   5.92858346
_cell_length_b   5.92858346
_cell_length_c   5.43434889
_cell_angle_alpha   86.92958015
_cell_angle_beta   93.07041985
_cell_angle_gamma   121.61128921
_symmetry_Int_Tables_number   1
_chemical_formula_structural   Li2MnF4
_chemical_formula_sum   'Li4 Mn2 F8'
_cell_volume   162.35963737
_cell_formula_units_Z   2
loop_
 _symmetry_equiv_pos_site_id
 _symmetry_equiv_pos_as_xyz
  1  'x, y, z'
loop_
 _atom_site_type_symbol
 _atom_site_label
 _atom_site_symmetry_multiplicity
 _atom_site_fract_x
 _atom_site_fract_y
 _atom_site_fract_z
 _atom_site_occupancy
  Li  Li0  1  0.35140558  0.94704100  0.78296403  1
  Li  Li1  1  0.05295900  0.64859442  0.28296403  1
  Li  Li2  1  0.94704100  0.35140558  0.71703597  1
  Li  Li3  1  0.64859442  0.05295900  0.21703597  1
  Mn  Mn4  1  0.66069379  0.66069379  0.75000000  1
  Mn  Mn5  1  0.33930621  0.33930621  0.25000000  1
  F  F6  1  0.71883333  0.01740663  0.88185021  1
  F  F7  1  0.98259337  0.28116667  0.38185021  1
  F  F8  1  0.26997830  0.49868791  0.91153648  1
  F  F9  1  0.50131209  0.73002170  0.41153648  1
  F  F10  1  0.49868791  0.26997830  0.58846352  1
  F  F11  1  0.73002170  0.50131209  0.08846352  1
  F  F12  1  0.01740663  0.71883333  0.61814979  1
  F  F13  1  0.28116667  0.98259337  0.11814979  1
