# generated using pymatgen
data_Li2Cr(CO3)2
_symmetry_space_group_name_H-M   'P 1'
_cell_length_a   8.78871023
_cell_length_b   6.11079012
_cell_length_c   5.33525447
_cell_angle_alpha   64.07175664
_cell_angle_beta   72.32735186
_cell_angle_gamma   82.37254779
_symmetry_Int_Tables_number   1
_chemical_formula_structural   Li2Cr(CO3)2
_chemical_formula_sum   'Li4 Cr2 C4 O12'
_cell_volume   245.53161182
_cell_formula_units_Z   2
loop_
 _symmetry_equiv_pos_site_id
 _symmetry_equiv_pos_as_xyz
  1  'x, y, z'
loop_
 _atom_site_type_symbol
 _atom_site_label
 _atom_site_symmetry_multiplicity
 _atom_site_fract_x
 _atom_site_fract_y
 _atom_site_fract_z
 _atom_site_occupancy
  Li  Li0  1  0.63659965  0.87721890  0.58197115  1
  Li  Li1  1  0.13522280  0.62205070  0.70528189  1
  Li  Li2  1  0.86510201  0.37736572  0.46478208  1
  Li  Li3  1  0.36368727  0.11919255  0.09226248  1
  Cr  Cr4  1  0.49973131  0.49882522  0.27341318  1
  Cr  Cr5  1  0.00006352  0.99887259  0.02601992  1
  C  C6  1  0.70934241  0.92083653  0.97788804  1
  C  C7  1  0.20893745  0.57713859  0.14481135  1
  C  C8  1  0.79179887  0.42112070  0.93538050  1
  C  C9  1  0.29051333  0.07710095  0.60400587  1
  O  O10  1  0.80117485  0.98544605  0.71956445  1
  O  O11  1  0.76102413  0.91009069  0.18710121  1
  O  O12  1  0.55958038  0.86381851  0.03466559  1
  O  O13  1  0.05898338  0.63414764  0.14622782  1
  O  O14  1  0.26132608  0.58887368  0.34203111  1
  O  O15  1  0.29997274  0.51157468  0.95146692  1
  O  O16  1  0.70168352  0.48672637  0.76598587  1
  O  O17  1  0.73831594  0.40924266  0.19667985  1
  O  O18  1  0.94201484  0.36411029  0.84540595  1
  O  O19  1  0.44016559  0.13433077  0.45463701  1
  O  O20  1  0.23865320  0.08774147  0.85408765  1
  O  O21  1  0.19884270  0.01206074  0.50178611  1
