# generated using pymatgen
data_SrB4O7
_symmetry_space_group_name_H-M   'P 1'
_cell_length_a   4.28033789
_cell_length_b   4.47236558
_cell_length_c   10.83906031
_cell_angle_alpha   90.00000000
_cell_angle_beta   90.00000000
_cell_angle_gamma   90.00000000
_symmetry_Int_Tables_number   1
_chemical_formula_structural   SrB4O7
_chemical_formula_sum   'Sr2 B8 O14'
_cell_volume   207.49468791
_cell_formula_units_Z   2
loop_
 _symmetry_equiv_pos_site_id
 _symmetry_equiv_pos_as_xyz
  1  'x, y, z'
loop_
 _atom_site_type_symbol
 _atom_site_label
 _atom_site_symmetry_multiplicity
 _atom_site_fract_x
 _atom_site_fract_y
 _atom_site_fract_z
 _atom_site_occupancy
  B  B0  1  0.00483908  0.32230855  0.24891707  1
  B  B1  1  0.50483908  0.67769145  0.25108293  1
  B  B2  1  0.03073518  0.82587545  0.37831186  1
  B  B3  1  0.53073518  0.17412455  0.12168814  1
  B  B4  1  0.53073518  0.17412455  0.87831186  1
  B  B5  1  0.03073518  0.82587545  0.62168814  1
  B  B6  1  0.50483908  0.67769145  0.74891707  1
  B  B7  1  0.00483908  0.32230855  0.75108293  1
  O  O8  1  0.96095212  0.14219742  0.35788704  1
  O  O9  1  0.86524505  0.22945878  0.86427979  1
  O  O10  1  0.36524505  0.77054122  0.63572021  1
  O  O11  1  0.36524505  0.77054122  0.36427979  1
  O  O12  1  0.36119593  0.36940576  0.77893148  1
  O  O13  1  0.86119593  0.63059424  0.72106852  1
  O  O14  1  0.86119593  0.63059424  0.27893148  1
  O  O15  1  0.36119593  0.36940576  0.22106852  1
  O  O16  1  0.46095212  0.85780258  0.85788704  1
  O  O17  1  0.96095212  0.14219742  0.64211296  1
  O  O18  1  0.92485309  0.73136214  0.50000000  1
  O  O19  1  0.42485309  0.26863786  0.00000000  1
  O  O20  1  0.86524505  0.22945878  0.13572021  1
  O  O21  1  0.46095212  0.85780258  0.14211296  1
  Sr  Sr22  1  0.50721221  0.28876979  0.50000000  1
  Sr  Sr23  1  0.00721221  0.71123021  0.00000000  1
