# generated using pymatgen
data_LiRe(OF2)2
_symmetry_space_group_name_H-M   'P 1'
_cell_length_a   4.83907743
_cell_length_b   4.83907743
_cell_length_c   9.06250436
_cell_angle_alpha   90.00000000
_cell_angle_beta   90.00000000
_cell_angle_gamma   90.00000000
_symmetry_Int_Tables_number   1
_chemical_formula_structural   LiRe(OF2)2
_chemical_formula_sum   'Li2 Re2 O4 F8'
_cell_volume   212.21367736
_cell_formula_units_Z   2
loop_
 _symmetry_equiv_pos_site_id
 _symmetry_equiv_pos_as_xyz
  1  'x, y, z'
loop_
 _atom_site_type_symbol
 _atom_site_label
 _atom_site_symmetry_multiplicity
 _atom_site_fract_x
 _atom_site_fract_y
 _atom_site_fract_z
 _atom_site_occupancy
  Li  Li0  1  0.00000000  0.50000000  0.41818744  1
  Li  Li1  1  0.50000000  0.00000000  0.58181256  1
  Re  Re2  1  0.00000000  0.50000000  0.77451104  1
  Re  Re3  1  0.50000000  0.00000000  0.22548896  1
  O  O4  1  0.19468188  0.30531812  0.89288140  1
  O  O5  1  0.30531812  0.80531812  0.10711860  1
  O  O6  1  0.80531812  0.69468188  0.89288140  1
  O  O7  1  0.69468188  0.19468188  0.10711860  1
  F  F8  1  0.68465023  0.18465023  0.40428907  1
  F  F9  1  0.81534977  0.68465023  0.59571093  1
  F  F10  1  0.31534977  0.81534977  0.40428907  1
  F  F11  1  0.27445694  0.77445694  0.73948674  1
  F  F12  1  0.72554306  0.22554306  0.73948674  1
  F  F13  1  0.22554306  0.27445694  0.26051326  1
  F  F14  1  0.77445694  0.72554306  0.26051326  1
  F  F15  1  0.18465023  0.31534977  0.59571093  1
